version 2
run General-0-20151030-15:14:10-8677
attr configname General
attr datetime 20151030-15:14:10
attr experiment General
attr inifile omnetpp.ini
attr iterationvars ""
attr iterationvars2 $repetition=0
attr measurement ""
attr network ApplicationClusteringImplementations
attr processid 8677
attr repetition 0
attr replication #0
attr resultdir results
attr runnumber 0
attr seedset 0

scalar ApplicationClusteringImplementations.testPos.nic.mac 	nbTxFrames 	2
scalar ApplicationClusteringImplementations.testPos.nic.mac 	nbRxFrames 	1
scalar ApplicationClusteringImplementations.testPos.nic.mac 	nbDroppedFrames 	0
scalar ApplicationClusteringImplementations.testPos.nic.mac 	nbMissedAcks 	0
scalar ApplicationClusteringImplementations.testPos.nic.mac 	nbRecvdAcks 	0
scalar ApplicationClusteringImplementations.testPos.nic.mac 	nbTxAcks 	0
scalar ApplicationClusteringImplementations.testPos.nic.mac 	nbDuplicates 	0
scalar ApplicationClusteringImplementations.testPos.nic.mac 	meanBackoff 	0.35
scalar ApplicationClusteringImplementations.testPos.nic.mac 	nbBackoffs 	4
scalar ApplicationClusteringImplementations.testPos.nic.mac 	backoffDurations 	1.4
scalar ApplicationClusteringImplementations.testPos.nic.phy 	nbFramesWithInterference 	0
scalar ApplicationClusteringImplementations.testPos.nic.phy 	nbFramesWithoutInterference 	7
scalar ApplicationClusteringImplementations.testPos.nic.phy 	nbFramesWithInterferencePartial 	0
scalar ApplicationClusteringImplementations.testPos.nic.phy 	nbFramesWithoutInterferencePartial 	0
scalar ApplicationClusteringImplementations.testPos.nic.phy 	nbFramesWithInterferenceDropped 	0
scalar ApplicationClusteringImplementations.testPos.nic.phy 	nbFramesWithoutInterferenceDropped 	0
scalar ApplicationClusteringImplementations.testPos1.nic.mac 	nbTxFrames 	2
scalar ApplicationClusteringImplementations.testPos1.nic.mac 	nbRxFrames 	2
scalar ApplicationClusteringImplementations.testPos1.nic.mac 	nbDroppedFrames 	0
scalar ApplicationClusteringImplementations.testPos1.nic.mac 	nbMissedAcks 	0
scalar ApplicationClusteringImplementations.testPos1.nic.mac 	nbRecvdAcks 	0
scalar ApplicationClusteringImplementations.testPos1.nic.mac 	nbTxAcks 	0
scalar ApplicationClusteringImplementations.testPos1.nic.mac 	nbDuplicates 	0
scalar ApplicationClusteringImplementations.testPos1.nic.mac 	meanBackoff 	0.46
scalar ApplicationClusteringImplementations.testPos1.nic.mac 	nbBackoffs 	4
scalar ApplicationClusteringImplementations.testPos1.nic.mac 	backoffDurations 	1.84
scalar ApplicationClusteringImplementations.testPos1.nic.phy 	nbFramesWithInterference 	0
scalar ApplicationClusteringImplementations.testPos1.nic.phy 	nbFramesWithoutInterference 	11
scalar ApplicationClusteringImplementations.testPos1.nic.phy 	nbFramesWithInterferencePartial 	0
scalar ApplicationClusteringImplementations.testPos1.nic.phy 	nbFramesWithoutInterferencePartial 	0
scalar ApplicationClusteringImplementations.testPos1.nic.phy 	nbFramesWithInterferenceDropped 	0
scalar ApplicationClusteringImplementations.testPos1.nic.phy 	nbFramesWithoutInterferenceDropped 	0
scalar ApplicationClusteringImplementations.testPos2.nic.mac 	nbTxFrames 	3
scalar ApplicationClusteringImplementations.testPos2.nic.mac 	nbRxFrames 	5
scalar ApplicationClusteringImplementations.testPos2.nic.mac 	nbDroppedFrames 	0
scalar ApplicationClusteringImplementations.testPos2.nic.mac 	nbMissedAcks 	0
scalar ApplicationClusteringImplementations.testPos2.nic.mac 	nbRecvdAcks 	0
scalar ApplicationClusteringImplementations.testPos2.nic.mac 	nbTxAcks 	0
scalar ApplicationClusteringImplementations.testPos2.nic.mac 	nbDuplicates 	0
scalar ApplicationClusteringImplementations.testPos2.nic.mac 	meanBackoff 	0.37
scalar ApplicationClusteringImplementations.testPos2.nic.mac 	nbBackoffs 	4
scalar ApplicationClusteringImplementations.testPos2.nic.mac 	backoffDurations 	1.48
scalar ApplicationClusteringImplementations.testPos2.nic.phy 	nbFramesWithInterference 	0
scalar ApplicationClusteringImplementations.testPos2.nic.phy 	nbFramesWithoutInterference 	8
scalar ApplicationClusteringImplementations.testPos2.nic.phy 	nbFramesWithInterferencePartial 	0
scalar ApplicationClusteringImplementations.testPos2.nic.phy 	nbFramesWithoutInterferencePartial 	0
scalar ApplicationClusteringImplementations.testPos2.nic.phy 	nbFramesWithInterferenceDropped 	0
scalar ApplicationClusteringImplementations.testPos2.nic.phy 	nbFramesWithoutInterferenceDropped 	0
scalar ApplicationClusteringImplementations.testPos3.nic.mac 	nbTxFrames 	2
scalar ApplicationClusteringImplementations.testPos3.nic.mac 	nbRxFrames 	1
scalar ApplicationClusteringImplementations.testPos3.nic.mac 	nbDroppedFrames 	0
scalar ApplicationClusteringImplementations.testPos3.nic.mac 	nbMissedAcks 	0
scalar ApplicationClusteringImplementations.testPos3.nic.mac 	nbRecvdAcks 	0
scalar ApplicationClusteringImplementations.testPos3.nic.mac 	nbTxAcks 	0
scalar ApplicationClusteringImplementations.testPos3.nic.mac 	nbDuplicates 	0
scalar ApplicationClusteringImplementations.testPos3.nic.mac 	meanBackoff 	0.27
scalar ApplicationClusteringImplementations.testPos3.nic.mac 	nbBackoffs 	4
scalar ApplicationClusteringImplementations.testPos3.nic.mac 	backoffDurations 	1.08
scalar ApplicationClusteringImplementations.testPos3.nic.phy 	nbFramesWithInterference 	0
scalar ApplicationClusteringImplementations.testPos3.nic.phy 	nbFramesWithoutInterference 	8
scalar ApplicationClusteringImplementations.testPos3.nic.phy 	nbFramesWithInterferencePartial 	0
scalar ApplicationClusteringImplementations.testPos3.nic.phy 	nbFramesWithoutInterferencePartial 	0
scalar ApplicationClusteringImplementations.testPos3.nic.phy 	nbFramesWithInterferenceDropped 	0
scalar ApplicationClusteringImplementations.testPos3.nic.phy 	nbFramesWithoutInterferenceDropped 	0
scalar ApplicationClusteringImplementations.testPos4.nic.mac 	nbTxFrames 	0
scalar ApplicationClusteringImplementations.testPos4.nic.mac 	nbRxFrames 	0
scalar ApplicationClusteringImplementations.testPos4.nic.mac 	nbDroppedFrames 	0
scalar ApplicationClusteringImplementations.testPos4.nic.mac 	nbMissedAcks 	0
scalar ApplicationClusteringImplementations.testPos4.nic.mac 	nbRecvdAcks 	0
scalar ApplicationClusteringImplementations.testPos4.nic.mac 	nbTxAcks 	0
scalar ApplicationClusteringImplementations.testPos4.nic.mac 	nbDuplicates 	0
scalar ApplicationClusteringImplementations.testPos4.nic.mac 	meanBackoff 	0
scalar ApplicationClusteringImplementations.testPos4.nic.mac 	nbBackoffs 	0
scalar ApplicationClusteringImplementations.testPos4.nic.mac 	backoffDurations 	0
scalar ApplicationClusteringImplementations.testPos4.nic.phy 	nbFramesWithInterference 	0
scalar ApplicationClusteringImplementations.testPos4.nic.phy 	nbFramesWithoutInterference 	2
scalar ApplicationClusteringImplementations.testPos4.nic.phy 	nbFramesWithInterferencePartial 	0
scalar ApplicationClusteringImplementations.testPos4.nic.phy 	nbFramesWithoutInterferencePartial 	0
scalar ApplicationClusteringImplementations.testPos4.nic.phy 	nbFramesWithInterferenceDropped 	0
scalar ApplicationClusteringImplementations.testPos4.nic.phy 	nbFramesWithoutInterferenceDropped 	0
scalar ApplicationClusteringImplementations.testPos5.nic.mac 	nbTxFrames 	1
scalar ApplicationClusteringImplementations.testPos5.nic.mac 	nbRxFrames 	1
scalar ApplicationClusteringImplementations.testPos5.nic.mac 	nbDroppedFrames 	0
scalar ApplicationClusteringImplementations.testPos5.nic.mac 	nbMissedAcks 	0
scalar ApplicationClusteringImplementations.testPos5.nic.mac 	nbRecvdAcks 	0
scalar ApplicationClusteringImplementations.testPos5.nic.mac 	nbTxAcks 	0
scalar ApplicationClusteringImplementations.testPos5.nic.mac 	nbDuplicates 	0
scalar ApplicationClusteringImplementations.testPos5.nic.mac 	meanBackoff 	0.46666666666667
scalar ApplicationClusteringImplementations.testPos5.nic.mac 	nbBackoffs 	3
scalar ApplicationClusteringImplementations.testPos5.nic.mac 	backoffDurations 	1.4
scalar ApplicationClusteringImplementations.testPos5.nic.phy 	nbFramesWithInterference 	0
scalar ApplicationClusteringImplementations.testPos5.nic.phy 	nbFramesWithoutInterference 	14
scalar ApplicationClusteringImplementations.testPos5.nic.phy 	nbFramesWithInterferencePartial 	0
scalar ApplicationClusteringImplementations.testPos5.nic.phy 	nbFramesWithoutInterferencePartial 	0
scalar ApplicationClusteringImplementations.testPos5.nic.phy 	nbFramesWithInterferenceDropped 	0
scalar ApplicationClusteringImplementations.testPos5.nic.phy 	nbFramesWithoutInterferenceDropped 	0
scalar ApplicationClusteringImplementations.testPos6.nic.mac 	nbTxFrames 	1
scalar ApplicationClusteringImplementations.testPos6.nic.mac 	nbRxFrames 	0
scalar ApplicationClusteringImplementations.testPos6.nic.mac 	nbDroppedFrames 	0
scalar ApplicationClusteringImplementations.testPos6.nic.mac 	nbMissedAcks 	0
scalar ApplicationClusteringImplementations.testPos6.nic.mac 	nbRecvdAcks 	0
scalar ApplicationClusteringImplementations.testPos6.nic.mac 	nbTxAcks 	0
scalar ApplicationClusteringImplementations.testPos6.nic.mac 	nbDuplicates 	0
scalar ApplicationClusteringImplementations.testPos6.nic.mac 	meanBackoff 	0.42
scalar ApplicationClusteringImplementations.testPos6.nic.mac 	nbBackoffs 	4
scalar ApplicationClusteringImplementations.testPos6.nic.mac 	backoffDurations 	1.68
scalar ApplicationClusteringImplementations.testPos6.nic.phy 	nbFramesWithInterference 	1
scalar ApplicationClusteringImplementations.testPos6.nic.phy 	nbFramesWithoutInterference 	14
scalar ApplicationClusteringImplementations.testPos6.nic.phy 	nbFramesWithInterferencePartial 	0
scalar ApplicationClusteringImplementations.testPos6.nic.phy 	nbFramesWithoutInterferencePartial 	0
scalar ApplicationClusteringImplementations.testPos6.nic.phy 	nbFramesWithInterferenceDropped 	0
scalar ApplicationClusteringImplementations.testPos6.nic.phy 	nbFramesWithoutInterferenceDropped 	0
scalar ApplicationClusteringImplementations.testPos7.nic.mac 	nbTxFrames 	2
scalar ApplicationClusteringImplementations.testPos7.nic.mac 	nbRxFrames 	2
scalar ApplicationClusteringImplementations.testPos7.nic.mac 	nbDroppedFrames 	0
scalar ApplicationClusteringImplementations.testPos7.nic.mac 	nbMissedAcks 	0
scalar ApplicationClusteringImplementations.testPos7.nic.mac 	nbRecvdAcks 	0
scalar ApplicationClusteringImplementations.testPos7.nic.mac 	nbTxAcks 	0
scalar ApplicationClusteringImplementations.testPos7.nic.mac 	nbDuplicates 	0
scalar ApplicationClusteringImplementations.testPos7.nic.mac 	meanBackoff 	0.34666666666667
scalar ApplicationClusteringImplementations.testPos7.nic.mac 	nbBackoffs 	3
scalar ApplicationClusteringImplementations.testPos7.nic.mac 	backoffDurations 	1.04
scalar ApplicationClusteringImplementations.testPos7.nic.phy 	nbFramesWithInterference 	0
scalar ApplicationClusteringImplementations.testPos7.nic.phy 	nbFramesWithoutInterference 	7
scalar ApplicationClusteringImplementations.testPos7.nic.phy 	nbFramesWithInterferencePartial 	0
scalar ApplicationClusteringImplementations.testPos7.nic.phy 	nbFramesWithoutInterferencePartial 	0
scalar ApplicationClusteringImplementations.testPos7.nic.phy 	nbFramesWithInterferenceDropped 	0
scalar ApplicationClusteringImplementations.testPos7.nic.phy 	nbFramesWithoutInterferenceDropped 	0
scalar ApplicationClusteringImplementations.testPos8.nic.mac 	nbTxFrames 	0
scalar ApplicationClusteringImplementations.testPos8.nic.mac 	nbRxFrames 	0
scalar ApplicationClusteringImplementations.testPos8.nic.mac 	nbDroppedFrames 	0
scalar ApplicationClusteringImplementations.testPos8.nic.mac 	nbMissedAcks 	0
scalar ApplicationClusteringImplementations.testPos8.nic.mac 	nbRecvdAcks 	0
scalar ApplicationClusteringImplementations.testPos8.nic.mac 	nbTxAcks 	0
scalar ApplicationClusteringImplementations.testPos8.nic.mac 	nbDuplicates 	0
scalar ApplicationClusteringImplementations.testPos8.nic.mac 	meanBackoff 	0
scalar ApplicationClusteringImplementations.testPos8.nic.mac 	nbBackoffs 	0
scalar ApplicationClusteringImplementations.testPos8.nic.mac 	backoffDurations 	0
scalar ApplicationClusteringImplementations.testPos8.nic.phy 	nbFramesWithInterference 	0
scalar ApplicationClusteringImplementations.testPos8.nic.phy 	nbFramesWithoutInterference 	4
scalar ApplicationClusteringImplementations.testPos8.nic.phy 	nbFramesWithInterferencePartial 	0
scalar ApplicationClusteringImplementations.testPos8.nic.phy 	nbFramesWithoutInterferencePartial 	0
scalar ApplicationClusteringImplementations.testPos8.nic.phy 	nbFramesWithInterferenceDropped 	0
scalar ApplicationClusteringImplementations.testPos8.nic.phy 	nbFramesWithoutInterferenceDropped 	0
scalar ApplicationClusteringImplementations.testPos9.nic.mac 	nbTxFrames 	0
scalar ApplicationClusteringImplementations.testPos9.nic.mac 	nbRxFrames 	0
scalar ApplicationClusteringImplementations.testPos9.nic.mac 	nbDroppedFrames 	0
scalar ApplicationClusteringImplementations.testPos9.nic.mac 	nbMissedAcks 	0
scalar ApplicationClusteringImplementations.testPos9.nic.mac 	nbRecvdAcks 	0
scalar ApplicationClusteringImplementations.testPos9.nic.mac 	nbTxAcks 	0
scalar ApplicationClusteringImplementations.testPos9.nic.mac 	nbDuplicates 	0
scalar ApplicationClusteringImplementations.testPos9.nic.mac 	meanBackoff 	0
scalar ApplicationClusteringImplementations.testPos9.nic.mac 	nbBackoffs 	0
scalar ApplicationClusteringImplementations.testPos9.nic.mac 	backoffDurations 	0
scalar ApplicationClusteringImplementations.testPos9.nic.phy 	nbFramesWithInterference 	0
scalar ApplicationClusteringImplementations.testPos9.nic.phy 	nbFramesWithoutInterference 	2
scalar ApplicationClusteringImplementations.testPos9.nic.phy 	nbFramesWithInterferencePartial 	0
scalar ApplicationClusteringImplementations.testPos9.nic.phy 	nbFramesWithoutInterferencePartial 	0
scalar ApplicationClusteringImplementations.testPos9.nic.phy 	nbFramesWithInterferenceDropped 	0
scalar ApplicationClusteringImplementations.testPos9.nic.phy 	nbFramesWithoutInterferenceDropped 	0
scalar ApplicationClusteringImplementations.testPos10.nic.mac 	nbTxFrames 	0
scalar ApplicationClusteringImplementations.testPos10.nic.mac 	nbRxFrames 	0
scalar ApplicationClusteringImplementations.testPos10.nic.mac 	nbDroppedFrames 	0
scalar ApplicationClusteringImplementations.testPos10.nic.mac 	nbMissedAcks 	0
scalar ApplicationClusteringImplementations.testPos10.nic.mac 	nbRecvdAcks 	0
scalar ApplicationClusteringImplementations.testPos10.nic.mac 	nbTxAcks 	0
scalar ApplicationClusteringImplementations.testPos10.nic.mac 	nbDuplicates 	0
scalar ApplicationClusteringImplementations.testPos10.nic.mac 	meanBackoff 	0
scalar ApplicationClusteringImplementations.testPos10.nic.mac 	nbBackoffs 	0
scalar ApplicationClusteringImplementations.testPos10.nic.mac 	backoffDurations 	0
scalar ApplicationClusteringImplementations.testPos10.nic.phy 	nbFramesWithInterference 	1
scalar ApplicationClusteringImplementations.testPos10.nic.phy 	nbFramesWithoutInterference 	2
scalar ApplicationClusteringImplementations.testPos10.nic.phy 	nbFramesWithInterferencePartial 	0
scalar ApplicationClusteringImplementations.testPos10.nic.phy 	nbFramesWithoutInterferencePartial 	0
scalar ApplicationClusteringImplementations.testPos10.nic.phy 	nbFramesWithInterferenceDropped 	0
scalar ApplicationClusteringImplementations.testPos10.nic.phy 	nbFramesWithoutInterferenceDropped 	0
scalar ApplicationClusteringImplementations.testPos11.nic.mac 	nbTxFrames 	0
scalar ApplicationClusteringImplementations.testPos11.nic.mac 	nbRxFrames 	0
scalar ApplicationClusteringImplementations.testPos11.nic.mac 	nbDroppedFrames 	0
scalar ApplicationClusteringImplementations.testPos11.nic.mac 	nbMissedAcks 	0
scalar ApplicationClusteringImplementations.testPos11.nic.mac 	nbRecvdAcks 	0
scalar ApplicationClusteringImplementations.testPos11.nic.mac 	nbTxAcks 	0
scalar ApplicationClusteringImplementations.testPos11.nic.mac 	nbDuplicates 	0
scalar ApplicationClusteringImplementations.testPos11.nic.mac 	meanBackoff 	0
scalar ApplicationClusteringImplementations.testPos11.nic.mac 	nbBackoffs 	0
scalar ApplicationClusteringImplementations.testPos11.nic.mac 	backoffDurations 	0
scalar ApplicationClusteringImplementations.testPos11.nic.phy 	nbFramesWithInterference 	1
scalar ApplicationClusteringImplementations.testPos11.nic.phy 	nbFramesWithoutInterference 	4
scalar ApplicationClusteringImplementations.testPos11.nic.phy 	nbFramesWithInterferencePartial 	0
scalar ApplicationClusteringImplementations.testPos11.nic.phy 	nbFramesWithoutInterferencePartial 	0
scalar ApplicationClusteringImplementations.testPos11.nic.phy 	nbFramesWithInterferenceDropped 	0
scalar ApplicationClusteringImplementations.testPos11.nic.phy 	nbFramesWithoutInterferenceDropped 	0
scalar ApplicationClusteringImplementations.testPos12.nic.mac 	nbTxFrames 	3
scalar ApplicationClusteringImplementations.testPos12.nic.mac 	nbRxFrames 	4
scalar ApplicationClusteringImplementations.testPos12.nic.mac 	nbDroppedFrames 	0
scalar ApplicationClusteringImplementations.testPos12.nic.mac 	nbMissedAcks 	0
scalar ApplicationClusteringImplementations.testPos12.nic.mac 	nbRecvdAcks 	0
scalar ApplicationClusteringImplementations.testPos12.nic.mac 	nbTxAcks 	0
scalar ApplicationClusteringImplementations.testPos12.nic.mac 	nbDuplicates 	0
scalar ApplicationClusteringImplementations.testPos12.nic.mac 	meanBackoff 	0.48
scalar ApplicationClusteringImplementations.testPos12.nic.mac 	nbBackoffs 	3
scalar ApplicationClusteringImplementations.testPos12.nic.mac 	backoffDurations 	1.44
scalar ApplicationClusteringImplementations.testPos12.nic.phy 	nbFramesWithInterference 	3
scalar ApplicationClusteringImplementations.testPos12.nic.phy 	nbFramesWithoutInterference 	8
scalar ApplicationClusteringImplementations.testPos12.nic.phy 	nbFramesWithInterferencePartial 	0
scalar ApplicationClusteringImplementations.testPos12.nic.phy 	nbFramesWithoutInterferencePartial 	0
scalar ApplicationClusteringImplementations.testPos12.nic.phy 	nbFramesWithInterferenceDropped 	0
scalar ApplicationClusteringImplementations.testPos12.nic.phy 	nbFramesWithoutInterferenceDropped 	0
scalar ApplicationClusteringImplementations.testPos13.nic.mac 	nbTxFrames 	2
scalar ApplicationClusteringImplementations.testPos13.nic.mac 	nbRxFrames 	1
scalar ApplicationClusteringImplementations.testPos13.nic.mac 	nbDroppedFrames 	0
scalar ApplicationClusteringImplementations.testPos13.nic.mac 	nbMissedAcks 	0
scalar ApplicationClusteringImplementations.testPos13.nic.mac 	nbRecvdAcks 	0
scalar ApplicationClusteringImplementations.testPos13.nic.mac 	nbTxAcks 	0
scalar ApplicationClusteringImplementations.testPos13.nic.mac 	nbDuplicates 	0
scalar ApplicationClusteringImplementations.testPos13.nic.mac 	meanBackoff 	0.312
scalar ApplicationClusteringImplementations.testPos13.nic.mac 	nbBackoffs 	5
scalar ApplicationClusteringImplementations.testPos13.nic.mac 	backoffDurations 	1.56
scalar ApplicationClusteringImplementations.testPos13.nic.phy 	nbFramesWithInterference 	0
scalar ApplicationClusteringImplementations.testPos13.nic.phy 	nbFramesWithoutInterference 	13
scalar ApplicationClusteringImplementations.testPos13.nic.phy 	nbFramesWithInterferencePartial 	0
scalar ApplicationClusteringImplementations.testPos13.nic.phy 	nbFramesWithoutInterferencePartial 	0
scalar ApplicationClusteringImplementations.testPos13.nic.phy 	nbFramesWithInterferenceDropped 	0
scalar ApplicationClusteringImplementations.testPos13.nic.phy 	nbFramesWithoutInterferenceDropped 	0
scalar ApplicationClusteringImplementations.testPos14.nic.mac 	nbTxFrames 	2
scalar ApplicationClusteringImplementations.testPos14.nic.mac 	nbRxFrames 	3
scalar ApplicationClusteringImplementations.testPos14.nic.mac 	nbDroppedFrames 	0
scalar ApplicationClusteringImplementations.testPos14.nic.mac 	nbMissedAcks 	0
scalar ApplicationClusteringImplementations.testPos14.nic.mac 	nbRecvdAcks 	0
scalar ApplicationClusteringImplementations.testPos14.nic.mac 	nbTxAcks 	0
scalar ApplicationClusteringImplementations.testPos14.nic.mac 	nbDuplicates 	0
scalar ApplicationClusteringImplementations.testPos14.nic.mac 	meanBackoff 	0.37333333333333
scalar ApplicationClusteringImplementations.testPos14.nic.mac 	nbBackoffs 	3
scalar ApplicationClusteringImplementations.testPos14.nic.mac 	backoffDurations 	1.12
scalar ApplicationClusteringImplementations.testPos14.nic.phy 	nbFramesWithInterference 	0
scalar ApplicationClusteringImplementations.testPos14.nic.phy 	nbFramesWithoutInterference 	11
scalar ApplicationClusteringImplementations.testPos14.nic.phy 	nbFramesWithInterferencePartial 	0
scalar ApplicationClusteringImplementations.testPos14.nic.phy 	nbFramesWithoutInterferencePartial 	0
scalar ApplicationClusteringImplementations.testPos14.nic.phy 	nbFramesWithInterferenceDropped 	0
scalar ApplicationClusteringImplementations.testPos14.nic.phy 	nbFramesWithoutInterferenceDropped 	0
scalar ApplicationClusteringImplementations.testPos15.nic.mac 	nbTxFrames 	2
scalar ApplicationClusteringImplementations.testPos15.nic.mac 	nbRxFrames 	1
scalar ApplicationClusteringImplementations.testPos15.nic.mac 	nbDroppedFrames 	0
scalar ApplicationClusteringImplementations.testPos15.nic.mac 	nbMissedAcks 	0
scalar ApplicationClusteringImplementations.testPos15.nic.mac 	nbRecvdAcks 	0
scalar ApplicationClusteringImplementations.testPos15.nic.mac 	nbTxAcks 	0
scalar ApplicationClusteringImplementations.testPos15.nic.mac 	nbDuplicates 	0
scalar ApplicationClusteringImplementations.testPos15.nic.mac 	meanBackoff 	0.4
scalar ApplicationClusteringImplementations.testPos15.nic.mac 	nbBackoffs 	4
scalar ApplicationClusteringImplementations.testPos15.nic.mac 	backoffDurations 	1.6
scalar ApplicationClusteringImplementations.testPos15.nic.phy 	nbFramesWithInterference 	0
scalar ApplicationClusteringImplementations.testPos15.nic.phy 	nbFramesWithoutInterference 	13
scalar ApplicationClusteringImplementations.testPos15.nic.phy 	nbFramesWithInterferencePartial 	0
scalar ApplicationClusteringImplementations.testPos15.nic.phy 	nbFramesWithoutInterferencePartial 	0
scalar ApplicationClusteringImplementations.testPos15.nic.phy 	nbFramesWithInterferenceDropped 	0
scalar ApplicationClusteringImplementations.testPos15.nic.phy 	nbFramesWithoutInterferenceDropped 	0
scalar ApplicationClusteringImplementations.testPos16.nic.mac 	nbTxFrames 	2
scalar ApplicationClusteringImplementations.testPos16.nic.mac 	nbRxFrames 	1
scalar ApplicationClusteringImplementations.testPos16.nic.mac 	nbDroppedFrames 	0
scalar ApplicationClusteringImplementations.testPos16.nic.mac 	nbMissedAcks 	0
scalar ApplicationClusteringImplementations.testPos16.nic.mac 	nbRecvdAcks 	0
scalar ApplicationClusteringImplementations.testPos16.nic.mac 	nbTxAcks 	0
scalar ApplicationClusteringImplementations.testPos16.nic.mac 	nbDuplicates 	0
scalar ApplicationClusteringImplementations.testPos16.nic.mac 	meanBackoff 	0.57333333333333
scalar ApplicationClusteringImplementations.testPos16.nic.mac 	nbBackoffs 	3
scalar ApplicationClusteringImplementations.testPos16.nic.mac 	backoffDurations 	1.72
scalar ApplicationClusteringImplementations.testPos16.nic.phy 	nbFramesWithInterference 	0
scalar ApplicationClusteringImplementations.testPos16.nic.phy 	nbFramesWithoutInterference 	5
scalar ApplicationClusteringImplementations.testPos16.nic.phy 	nbFramesWithInterferencePartial 	0
scalar ApplicationClusteringImplementations.testPos16.nic.phy 	nbFramesWithoutInterferencePartial 	0
scalar ApplicationClusteringImplementations.testPos16.nic.phy 	nbFramesWithInterferenceDropped 	0
scalar ApplicationClusteringImplementations.testPos16.nic.phy 	nbFramesWithoutInterferenceDropped 	0
scalar ApplicationClusteringImplementations.testPos17.nic.mac 	nbTxFrames 	2
scalar ApplicationClusteringImplementations.testPos17.nic.mac 	nbRxFrames 	2
scalar ApplicationClusteringImplementations.testPos17.nic.mac 	nbDroppedFrames 	0
scalar ApplicationClusteringImplementations.testPos17.nic.mac 	nbMissedAcks 	0
scalar ApplicationClusteringImplementations.testPos17.nic.mac 	nbRecvdAcks 	0
scalar ApplicationClusteringImplementations.testPos17.nic.mac 	nbTxAcks 	0
scalar ApplicationClusteringImplementations.testPos17.nic.mac 	nbDuplicates 	0
scalar ApplicationClusteringImplementations.testPos17.nic.mac 	meanBackoff 	0.50666666666667
scalar ApplicationClusteringImplementations.testPos17.nic.mac 	nbBackoffs 	3
scalar ApplicationClusteringImplementations.testPos17.nic.mac 	backoffDurations 	1.52
scalar ApplicationClusteringImplementations.testPos17.nic.phy 	nbFramesWithInterference 	0
scalar ApplicationClusteringImplementations.testPos17.nic.phy 	nbFramesWithoutInterference 	5
scalar ApplicationClusteringImplementations.testPos17.nic.phy 	nbFramesWithInterferencePartial 	0
scalar ApplicationClusteringImplementations.testPos17.nic.phy 	nbFramesWithoutInterferencePartial 	0
scalar ApplicationClusteringImplementations.testPos17.nic.phy 	nbFramesWithInterferenceDropped 	0
scalar ApplicationClusteringImplementations.testPos17.nic.phy 	nbFramesWithoutInterferenceDropped 	0
scalar ApplicationClusteringImplementations.testPos18.nic.mac 	nbTxFrames 	2
scalar ApplicationClusteringImplementations.testPos18.nic.mac 	nbRxFrames 	2
scalar ApplicationClusteringImplementations.testPos18.nic.mac 	nbDroppedFrames 	0
scalar ApplicationClusteringImplementations.testPos18.nic.mac 	nbMissedAcks 	0
scalar ApplicationClusteringImplementations.testPos18.nic.mac 	nbRecvdAcks 	0
scalar ApplicationClusteringImplementations.testPos18.nic.mac 	nbTxAcks 	0
scalar ApplicationClusteringImplementations.testPos18.nic.mac 	nbDuplicates 	0
scalar ApplicationClusteringImplementations.testPos18.nic.mac 	meanBackoff 	0.56
scalar ApplicationClusteringImplementations.testPos18.nic.mac 	nbBackoffs 	3
scalar ApplicationClusteringImplementations.testPos18.nic.mac 	backoffDurations 	1.68
scalar ApplicationClusteringImplementations.testPos18.nic.phy 	nbFramesWithInterference 	0
scalar ApplicationClusteringImplementations.testPos18.nic.phy 	nbFramesWithoutInterference 	10
scalar ApplicationClusteringImplementations.testPos18.nic.phy 	nbFramesWithInterferencePartial 	0
scalar ApplicationClusteringImplementations.testPos18.nic.phy 	nbFramesWithoutInterferencePartial 	0
scalar ApplicationClusteringImplementations.testPos18.nic.phy 	nbFramesWithInterferenceDropped 	0
scalar ApplicationClusteringImplementations.testPos18.nic.phy 	nbFramesWithoutInterferenceDropped 	0
scalar ApplicationClusteringImplementations.testPos19.nic.mac 	nbTxFrames 	1
scalar ApplicationClusteringImplementations.testPos19.nic.mac 	nbRxFrames 	1
scalar ApplicationClusteringImplementations.testPos19.nic.mac 	nbDroppedFrames 	0
scalar ApplicationClusteringImplementations.testPos19.nic.mac 	nbMissedAcks 	0
scalar ApplicationClusteringImplementations.testPos19.nic.mac 	nbRecvdAcks 	0
scalar ApplicationClusteringImplementations.testPos19.nic.mac 	nbTxAcks 	0
scalar ApplicationClusteringImplementations.testPos19.nic.mac 	nbDuplicates 	0
scalar ApplicationClusteringImplementations.testPos19.nic.mac 	meanBackoff 	0.69333333333333
scalar ApplicationClusteringImplementations.testPos19.nic.mac 	nbBackoffs 	3
scalar ApplicationClusteringImplementations.testPos19.nic.mac 	backoffDurations 	2.08
scalar ApplicationClusteringImplementations.testPos19.nic.phy 	nbFramesWithInterference 	1
scalar ApplicationClusteringImplementations.testPos19.nic.phy 	nbFramesWithoutInterference 	13
scalar ApplicationClusteringImplementations.testPos19.nic.phy 	nbFramesWithInterferencePartial 	0
scalar ApplicationClusteringImplementations.testPos19.nic.phy 	nbFramesWithoutInterferencePartial 	0
scalar ApplicationClusteringImplementations.testPos19.nic.phy 	nbFramesWithInterferenceDropped 	0
scalar ApplicationClusteringImplementations.testPos19.nic.phy 	nbFramesWithoutInterferenceDropped 	0
scalar ApplicationClusteringImplementations.testPos20.nic.mac 	nbTxFrames 	1
scalar ApplicationClusteringImplementations.testPos20.nic.mac 	nbRxFrames 	1
scalar ApplicationClusteringImplementations.testPos20.nic.mac 	nbDroppedFrames 	0
scalar ApplicationClusteringImplementations.testPos20.nic.mac 	nbMissedAcks 	0
scalar ApplicationClusteringImplementations.testPos20.nic.mac 	nbRecvdAcks 	0
scalar ApplicationClusteringImplementations.testPos20.nic.mac 	nbTxAcks 	0
scalar ApplicationClusteringImplementations.testPos20.nic.mac 	nbDuplicates 	0
scalar ApplicationClusteringImplementations.testPos20.nic.mac 	meanBackoff 	0.58666666666667
scalar ApplicationClusteringImplementations.testPos20.nic.mac 	nbBackoffs 	3
scalar ApplicationClusteringImplementations.testPos20.nic.mac 	backoffDurations 	1.76
scalar ApplicationClusteringImplementations.testPos20.nic.phy 	nbFramesWithInterference 	2
scalar ApplicationClusteringImplementations.testPos20.nic.phy 	nbFramesWithoutInterference 	13
scalar ApplicationClusteringImplementations.testPos20.nic.phy 	nbFramesWithInterferencePartial 	0
scalar ApplicationClusteringImplementations.testPos20.nic.phy 	nbFramesWithoutInterferencePartial 	0
scalar ApplicationClusteringImplementations.testPos20.nic.phy 	nbFramesWithInterferenceDropped 	0
scalar ApplicationClusteringImplementations.testPos20.nic.phy 	nbFramesWithoutInterferenceDropped 	0
scalar ApplicationClusteringImplementations.testPos21.nic.mac 	nbTxFrames 	5
scalar ApplicationClusteringImplementations.testPos21.nic.mac 	nbRxFrames 	5
scalar ApplicationClusteringImplementations.testPos21.nic.mac 	nbDroppedFrames 	0
scalar ApplicationClusteringImplementations.testPos21.nic.mac 	nbMissedAcks 	0
scalar ApplicationClusteringImplementations.testPos21.nic.mac 	nbRecvdAcks 	0
scalar ApplicationClusteringImplementations.testPos21.nic.mac 	nbTxAcks 	0
scalar ApplicationClusteringImplementations.testPos21.nic.mac 	nbDuplicates 	0
scalar ApplicationClusteringImplementations.testPos21.nic.mac 	meanBackoff 	0.2
scalar ApplicationClusteringImplementations.testPos21.nic.mac 	nbBackoffs 	6
scalar ApplicationClusteringImplementations.testPos21.nic.mac 	backoffDurations 	1.2
scalar ApplicationClusteringImplementations.testPos21.nic.phy 	nbFramesWithInterference 	1
scalar ApplicationClusteringImplementations.testPos21.nic.phy 	nbFramesWithoutInterference 	9
scalar ApplicationClusteringImplementations.testPos21.nic.phy 	nbFramesWithInterferencePartial 	0
scalar ApplicationClusteringImplementations.testPos21.nic.phy 	nbFramesWithoutInterferencePartial 	0
scalar ApplicationClusteringImplementations.testPos21.nic.phy 	nbFramesWithInterferenceDropped 	0
scalar ApplicationClusteringImplementations.testPos21.nic.phy 	nbFramesWithoutInterferenceDropped 	0
scalar ApplicationClusteringImplementations.testPos22.nic.mac 	nbTxFrames 	4
scalar ApplicationClusteringImplementations.testPos22.nic.mac 	nbRxFrames 	0
scalar ApplicationClusteringImplementations.testPos22.nic.mac 	nbDroppedFrames 	0
scalar ApplicationClusteringImplementations.testPos22.nic.mac 	nbMissedAcks 	0
scalar ApplicationClusteringImplementations.testPos22.nic.mac 	nbRecvdAcks 	0
scalar ApplicationClusteringImplementations.testPos22.nic.mac 	nbTxAcks 	0
scalar ApplicationClusteringImplementations.testPos22.nic.mac 	nbDuplicates 	0
scalar ApplicationClusteringImplementations.testPos22.nic.mac 	meanBackoff 	0.24
scalar ApplicationClusteringImplementations.testPos22.nic.mac 	nbBackoffs 	7
scalar ApplicationClusteringImplementations.testPos22.nic.mac 	backoffDurations 	1.68
scalar ApplicationClusteringImplementations.testPos22.nic.phy 	nbFramesWithInterference 	0
scalar ApplicationClusteringImplementations.testPos22.nic.phy 	nbFramesWithoutInterference 	13
scalar ApplicationClusteringImplementations.testPos22.nic.phy 	nbFramesWithInterferencePartial 	0
scalar ApplicationClusteringImplementations.testPos22.nic.phy 	nbFramesWithoutInterferencePartial 	0
scalar ApplicationClusteringImplementations.testPos22.nic.phy 	nbFramesWithInterferenceDropped 	1
scalar ApplicationClusteringImplementations.testPos22.nic.phy 	nbFramesWithoutInterferenceDropped 	0
scalar ApplicationClusteringImplementations.testPos23.nic.mac 	nbTxFrames 	2
scalar ApplicationClusteringImplementations.testPos23.nic.mac 	nbRxFrames 	1
scalar ApplicationClusteringImplementations.testPos23.nic.mac 	nbDroppedFrames 	0
scalar ApplicationClusteringImplementations.testPos23.nic.mac 	nbMissedAcks 	0
scalar ApplicationClusteringImplementations.testPos23.nic.mac 	nbRecvdAcks 	0
scalar ApplicationClusteringImplementations.testPos23.nic.mac 	nbTxAcks 	0
scalar ApplicationClusteringImplementations.testPos23.nic.mac 	nbDuplicates 	0
scalar ApplicationClusteringImplementations.testPos23.nic.mac 	meanBackoff 	0.48
scalar ApplicationClusteringImplementations.testPos23.nic.mac 	nbBackoffs 	3
scalar ApplicationClusteringImplementations.testPos23.nic.mac 	backoffDurations 	1.44
scalar ApplicationClusteringImplementations.testPos23.nic.phy 	nbFramesWithInterference 	1
scalar ApplicationClusteringImplementations.testPos23.nic.phy 	nbFramesWithoutInterference 	14
scalar ApplicationClusteringImplementations.testPos23.nic.phy 	nbFramesWithInterferencePartial 	0
scalar ApplicationClusteringImplementations.testPos23.nic.phy 	nbFramesWithoutInterferencePartial 	0
scalar ApplicationClusteringImplementations.testPos23.nic.phy 	nbFramesWithInterferenceDropped 	0
scalar ApplicationClusteringImplementations.testPos23.nic.phy 	nbFramesWithoutInterferenceDropped 	0
scalar ApplicationClusteringImplementations.testPos24.nic.mac 	nbTxFrames 	0
scalar ApplicationClusteringImplementations.testPos24.nic.mac 	nbRxFrames 	1
scalar ApplicationClusteringImplementations.testPos24.nic.mac 	nbDroppedFrames 	0
scalar ApplicationClusteringImplementations.testPos24.nic.mac 	nbMissedAcks 	0
scalar ApplicationClusteringImplementations.testPos24.nic.mac 	nbRecvdAcks 	0
scalar ApplicationClusteringImplementations.testPos24.nic.mac 	nbTxAcks 	0
scalar ApplicationClusteringImplementations.testPos24.nic.mac 	nbDuplicates 	0
scalar ApplicationClusteringImplementations.testPos24.nic.mac 	meanBackoff 	0.68
scalar ApplicationClusteringImplementations.testPos24.nic.mac 	nbBackoffs 	2
scalar ApplicationClusteringImplementations.testPos24.nic.mac 	backoffDurations 	1.36
scalar ApplicationClusteringImplementations.testPos24.nic.phy 	nbFramesWithInterference 	1
scalar ApplicationClusteringImplementations.testPos24.nic.phy 	nbFramesWithoutInterference 	10
scalar ApplicationClusteringImplementations.testPos24.nic.phy 	nbFramesWithInterferencePartial 	0
scalar ApplicationClusteringImplementations.testPos24.nic.phy 	nbFramesWithoutInterferencePartial 	0
scalar ApplicationClusteringImplementations.testPos24.nic.phy 	nbFramesWithInterferenceDropped 	0
scalar ApplicationClusteringImplementations.testPos24.nic.phy 	nbFramesWithoutInterferenceDropped 	0
scalar ApplicationClusteringImplementations.testPos25.nic.mac 	nbTxFrames 	3
scalar ApplicationClusteringImplementations.testPos25.nic.mac 	nbRxFrames 	0
scalar ApplicationClusteringImplementations.testPos25.nic.mac 	nbDroppedFrames 	0
scalar ApplicationClusteringImplementations.testPos25.nic.mac 	nbMissedAcks 	0
scalar ApplicationClusteringImplementations.testPos25.nic.mac 	nbRecvdAcks 	0
scalar ApplicationClusteringImplementations.testPos25.nic.mac 	nbTxAcks 	0
scalar ApplicationClusteringImplementations.testPos25.nic.mac 	nbDuplicates 	0
scalar ApplicationClusteringImplementations.testPos25.nic.mac 	meanBackoff 	0.496
scalar ApplicationClusteringImplementations.testPos25.nic.mac 	nbBackoffs 	5
scalar ApplicationClusteringImplementations.testPos25.nic.mac 	backoffDurations 	2.48
scalar ApplicationClusteringImplementations.testPos25.nic.phy 	nbFramesWithInterference 	2
scalar ApplicationClusteringImplementations.testPos25.nic.phy 	nbFramesWithoutInterference 	14
scalar ApplicationClusteringImplementations.testPos25.nic.phy 	nbFramesWithInterferencePartial 	0
scalar ApplicationClusteringImplementations.testPos25.nic.phy 	nbFramesWithoutInterferencePartial 	0
scalar ApplicationClusteringImplementations.testPos25.nic.phy 	nbFramesWithInterferenceDropped 	0
scalar ApplicationClusteringImplementations.testPos25.nic.phy 	nbFramesWithoutInterferenceDropped 	0
scalar ApplicationClusteringImplementations.testPos26.nic.mac 	nbTxFrames 	3
scalar ApplicationClusteringImplementations.testPos26.nic.mac 	nbRxFrames 	2
scalar ApplicationClusteringImplementations.testPos26.nic.mac 	nbDroppedFrames 	0
scalar ApplicationClusteringImplementations.testPos26.nic.mac 	nbMissedAcks 	0
scalar ApplicationClusteringImplementations.testPos26.nic.mac 	nbRecvdAcks 	0
scalar ApplicationClusteringImplementations.testPos26.nic.mac 	nbTxAcks 	0
scalar ApplicationClusteringImplementations.testPos26.nic.mac 	nbDuplicates 	0
scalar ApplicationClusteringImplementations.testPos26.nic.mac 	meanBackoff 	0.50666666666667
scalar ApplicationClusteringImplementations.testPos26.nic.mac 	nbBackoffs 	3
scalar ApplicationClusteringImplementations.testPos26.nic.mac 	backoffDurations 	1.52
scalar ApplicationClusteringImplementations.testPos26.nic.phy 	nbFramesWithInterference 	1
scalar ApplicationClusteringImplementations.testPos26.nic.phy 	nbFramesWithoutInterference 	11
scalar ApplicationClusteringImplementations.testPos26.nic.phy 	nbFramesWithInterferencePartial 	0
scalar ApplicationClusteringImplementations.testPos26.nic.phy 	nbFramesWithoutInterferencePartial 	0
scalar ApplicationClusteringImplementations.testPos26.nic.phy 	nbFramesWithInterferenceDropped 	0
scalar ApplicationClusteringImplementations.testPos26.nic.phy 	nbFramesWithoutInterferenceDropped 	0
scalar ApplicationClusteringImplementations.testPos27.nic.mac 	nbTxFrames 	3
scalar ApplicationClusteringImplementations.testPos27.nic.mac 	nbRxFrames 	2
scalar ApplicationClusteringImplementations.testPos27.nic.mac 	nbDroppedFrames 	0
scalar ApplicationClusteringImplementations.testPos27.nic.mac 	nbMissedAcks 	0
scalar ApplicationClusteringImplementations.testPos27.nic.mac 	nbRecvdAcks 	0
scalar ApplicationClusteringImplementations.testPos27.nic.mac 	nbTxAcks 	0
scalar ApplicationClusteringImplementations.testPos27.nic.mac 	nbDuplicates 	0
scalar ApplicationClusteringImplementations.testPos27.nic.mac 	meanBackoff 	0.312
scalar ApplicationClusteringImplementations.testPos27.nic.mac 	nbBackoffs 	5
scalar ApplicationClusteringImplementations.testPos27.nic.mac 	backoffDurations 	1.56
scalar ApplicationClusteringImplementations.testPos27.nic.phy 	nbFramesWithInterference 	6
scalar ApplicationClusteringImplementations.testPos27.nic.phy 	nbFramesWithoutInterference 	12
scalar ApplicationClusteringImplementations.testPos27.nic.phy 	nbFramesWithInterferencePartial 	0
scalar ApplicationClusteringImplementations.testPos27.nic.phy 	nbFramesWithoutInterferencePartial 	0
scalar ApplicationClusteringImplementations.testPos27.nic.phy 	nbFramesWithInterferenceDropped 	0
scalar ApplicationClusteringImplementations.testPos27.nic.phy 	nbFramesWithoutInterferenceDropped 	0
scalar ApplicationClusteringImplementations.testPos28.nic.mac 	nbTxFrames 	1
scalar ApplicationClusteringImplementations.testPos28.nic.mac 	nbRxFrames 	1
scalar ApplicationClusteringImplementations.testPos28.nic.mac 	nbDroppedFrames 	0
scalar ApplicationClusteringImplementations.testPos28.nic.mac 	nbMissedAcks 	0
scalar ApplicationClusteringImplementations.testPos28.nic.mac 	nbRecvdAcks 	0
scalar ApplicationClusteringImplementations.testPos28.nic.mac 	nbTxAcks 	0
scalar ApplicationClusteringImplementations.testPos28.nic.mac 	nbDuplicates 	0
scalar ApplicationClusteringImplementations.testPos28.nic.mac 	meanBackoff 	0.42
scalar ApplicationClusteringImplementations.testPos28.nic.mac 	nbBackoffs 	4
scalar ApplicationClusteringImplementations.testPos28.nic.mac 	backoffDurations 	1.68
scalar ApplicationClusteringImplementations.testPos28.nic.phy 	nbFramesWithInterference 	2
scalar ApplicationClusteringImplementations.testPos28.nic.phy 	nbFramesWithoutInterference 	16
scalar ApplicationClusteringImplementations.testPos28.nic.phy 	nbFramesWithInterferencePartial 	0
scalar ApplicationClusteringImplementations.testPos28.nic.phy 	nbFramesWithoutInterferencePartial 	0
scalar ApplicationClusteringImplementations.testPos28.nic.phy 	nbFramesWithInterferenceDropped 	0
scalar ApplicationClusteringImplementations.testPos28.nic.phy 	nbFramesWithoutInterferenceDropped 	0
scalar ApplicationClusteringImplementations.testPos29.nic.mac 	nbTxFrames 	3
scalar ApplicationClusteringImplementations.testPos29.nic.mac 	nbRxFrames 	1
scalar ApplicationClusteringImplementations.testPos29.nic.mac 	nbDroppedFrames 	0
scalar ApplicationClusteringImplementations.testPos29.nic.mac 	nbMissedAcks 	0
scalar ApplicationClusteringImplementations.testPos29.nic.mac 	nbRecvdAcks 	0
scalar ApplicationClusteringImplementations.testPos29.nic.mac 	nbTxAcks 	0
scalar ApplicationClusteringImplementations.testPos29.nic.mac 	nbDuplicates 	0
scalar ApplicationClusteringImplementations.testPos29.nic.mac 	meanBackoff 	0.70666666666667
scalar ApplicationClusteringImplementations.testPos29.nic.mac 	nbBackoffs 	3
scalar ApplicationClusteringImplementations.testPos29.nic.mac 	backoffDurations 	2.12
scalar ApplicationClusteringImplementations.testPos29.nic.phy 	nbFramesWithInterference 	1
scalar ApplicationClusteringImplementations.testPos29.nic.phy 	nbFramesWithoutInterference 	11
scalar ApplicationClusteringImplementations.testPos29.nic.phy 	nbFramesWithInterferencePartial 	0
scalar ApplicationClusteringImplementations.testPos29.nic.phy 	nbFramesWithoutInterferencePartial 	0
scalar ApplicationClusteringImplementations.testPos29.nic.phy 	nbFramesWithInterferenceDropped 	0
scalar ApplicationClusteringImplementations.testPos29.nic.phy 	nbFramesWithoutInterferenceDropped 	0
scalar ApplicationClusteringImplementations.testPos30.nic.mac 	nbTxFrames 	3
scalar ApplicationClusteringImplementations.testPos30.nic.mac 	nbRxFrames 	1
scalar ApplicationClusteringImplementations.testPos30.nic.mac 	nbDroppedFrames 	0
scalar ApplicationClusteringImplementations.testPos30.nic.mac 	nbMissedAcks 	0
scalar ApplicationClusteringImplementations.testPos30.nic.mac 	nbRecvdAcks 	0
scalar ApplicationClusteringImplementations.testPos30.nic.mac 	nbTxAcks 	0
scalar ApplicationClusteringImplementations.testPos30.nic.mac 	nbDuplicates 	0
scalar ApplicationClusteringImplementations.testPos30.nic.mac 	meanBackoff 	0.56
scalar ApplicationClusteringImplementations.testPos30.nic.mac 	nbBackoffs 	4
scalar ApplicationClusteringImplementations.testPos30.nic.mac 	backoffDurations 	2.24
scalar ApplicationClusteringImplementations.testPos30.nic.phy 	nbFramesWithInterference 	2
scalar ApplicationClusteringImplementations.testPos30.nic.phy 	nbFramesWithoutInterference 	13
scalar ApplicationClusteringImplementations.testPos30.nic.phy 	nbFramesWithInterferencePartial 	0
scalar ApplicationClusteringImplementations.testPos30.nic.phy 	nbFramesWithoutInterferencePartial 	0
scalar ApplicationClusteringImplementations.testPos30.nic.phy 	nbFramesWithInterferenceDropped 	1
scalar ApplicationClusteringImplementations.testPos30.nic.phy 	nbFramesWithoutInterferenceDropped 	0
scalar ApplicationClusteringImplementations.testPos31.nic.mac 	nbTxFrames 	5
scalar ApplicationClusteringImplementations.testPos31.nic.mac 	nbRxFrames 	2
scalar ApplicationClusteringImplementations.testPos31.nic.mac 	nbDroppedFrames 	0
scalar ApplicationClusteringImplementations.testPos31.nic.mac 	nbMissedAcks 	0
scalar ApplicationClusteringImplementations.testPos31.nic.mac 	nbRecvdAcks 	0
scalar ApplicationClusteringImplementations.testPos31.nic.mac 	nbTxAcks 	0
scalar ApplicationClusteringImplementations.testPos31.nic.mac 	nbDuplicates 	0
scalar ApplicationClusteringImplementations.testPos31.nic.mac 	meanBackoff 	0.24
scalar ApplicationClusteringImplementations.testPos31.nic.mac 	nbBackoffs 	5
scalar ApplicationClusteringImplementations.testPos31.nic.mac 	backoffDurations 	1.2
scalar ApplicationClusteringImplementations.testPos31.nic.phy 	nbFramesWithInterference 	3
scalar ApplicationClusteringImplementations.testPos31.nic.phy 	nbFramesWithoutInterference 	11
scalar ApplicationClusteringImplementations.testPos31.nic.phy 	nbFramesWithInterferencePartial 	0
scalar ApplicationClusteringImplementations.testPos31.nic.phy 	nbFramesWithoutInterferencePartial 	0
scalar ApplicationClusteringImplementations.testPos31.nic.phy 	nbFramesWithInterferenceDropped 	0
scalar ApplicationClusteringImplementations.testPos31.nic.phy 	nbFramesWithoutInterferenceDropped 	0
scalar ApplicationClusteringImplementations.testPos32.nic.mac 	nbTxFrames 	3
scalar ApplicationClusteringImplementations.testPos32.nic.mac 	nbRxFrames 	10
scalar ApplicationClusteringImplementations.testPos32.nic.mac 	nbDroppedFrames 	0
scalar ApplicationClusteringImplementations.testPos32.nic.mac 	nbMissedAcks 	0
scalar ApplicationClusteringImplementations.testPos32.nic.mac 	nbRecvdAcks 	0
scalar ApplicationClusteringImplementations.testPos32.nic.mac 	nbTxAcks 	0
scalar ApplicationClusteringImplementations.testPos32.nic.mac 	nbDuplicates 	0
scalar ApplicationClusteringImplementations.testPos32.nic.mac 	meanBackoff 	0.093333333333333
scalar ApplicationClusteringImplementations.testPos32.nic.mac 	nbBackoffs 	3
scalar ApplicationClusteringImplementations.testPos32.nic.mac 	backoffDurations 	0.28
scalar ApplicationClusteringImplementations.testPos32.nic.phy 	nbFramesWithInterference 	0
scalar ApplicationClusteringImplementations.testPos32.nic.phy 	nbFramesWithoutInterference 	13
scalar ApplicationClusteringImplementations.testPos32.nic.phy 	nbFramesWithInterferencePartial 	0
scalar ApplicationClusteringImplementations.testPos32.nic.phy 	nbFramesWithoutInterferencePartial 	0
scalar ApplicationClusteringImplementations.testPos32.nic.phy 	nbFramesWithInterferenceDropped 	0
scalar ApplicationClusteringImplementations.testPos32.nic.phy 	nbFramesWithoutInterferenceDropped 	0
scalar ApplicationClusteringImplementations.testPos33.nic.mac 	nbTxFrames 	2
scalar ApplicationClusteringImplementations.testPos33.nic.mac 	nbRxFrames 	1
scalar ApplicationClusteringImplementations.testPos33.nic.mac 	nbDroppedFrames 	0
scalar ApplicationClusteringImplementations.testPos33.nic.mac 	nbMissedAcks 	0
scalar ApplicationClusteringImplementations.testPos33.nic.mac 	nbRecvdAcks 	0
scalar ApplicationClusteringImplementations.testPos33.nic.mac 	nbTxAcks 	0
scalar ApplicationClusteringImplementations.testPos33.nic.mac 	nbDuplicates 	0
scalar ApplicationClusteringImplementations.testPos33.nic.mac 	meanBackoff 	0.56
scalar ApplicationClusteringImplementations.testPos33.nic.mac 	nbBackoffs 	3
scalar ApplicationClusteringImplementations.testPos33.nic.mac 	backoffDurations 	1.68
scalar ApplicationClusteringImplementations.testPos33.nic.phy 	nbFramesWithInterference 	1
scalar ApplicationClusteringImplementations.testPos33.nic.phy 	nbFramesWithoutInterference 	12
scalar ApplicationClusteringImplementations.testPos33.nic.phy 	nbFramesWithInterferencePartial 	0
scalar ApplicationClusteringImplementations.testPos33.nic.phy 	nbFramesWithoutInterferencePartial 	0
scalar ApplicationClusteringImplementations.testPos33.nic.phy 	nbFramesWithInterferenceDropped 	0
scalar ApplicationClusteringImplementations.testPos33.nic.phy 	nbFramesWithoutInterferenceDropped 	0
scalar ApplicationClusteringImplementations.testPos34.nic.mac 	nbTxFrames 	2
scalar ApplicationClusteringImplementations.testPos34.nic.mac 	nbRxFrames 	1
scalar ApplicationClusteringImplementations.testPos34.nic.mac 	nbDroppedFrames 	0
scalar ApplicationClusteringImplementations.testPos34.nic.mac 	nbMissedAcks 	0
scalar ApplicationClusteringImplementations.testPos34.nic.mac 	nbRecvdAcks 	0
scalar ApplicationClusteringImplementations.testPos34.nic.mac 	nbTxAcks 	0
scalar ApplicationClusteringImplementations.testPos34.nic.mac 	nbDuplicates 	0
scalar ApplicationClusteringImplementations.testPos34.nic.mac 	meanBackoff 	0.57333333333333
scalar ApplicationClusteringImplementations.testPos34.nic.mac 	nbBackoffs 	3
scalar ApplicationClusteringImplementations.testPos34.nic.mac 	backoffDurations 	1.72
scalar ApplicationClusteringImplementations.testPos34.nic.phy 	nbFramesWithInterference 	0
scalar ApplicationClusteringImplementations.testPos34.nic.phy 	nbFramesWithoutInterference 	14
scalar ApplicationClusteringImplementations.testPos34.nic.phy 	nbFramesWithInterferencePartial 	0
scalar ApplicationClusteringImplementations.testPos34.nic.phy 	nbFramesWithoutInterferencePartial 	0
scalar ApplicationClusteringImplementations.testPos34.nic.phy 	nbFramesWithInterferenceDropped 	0
scalar ApplicationClusteringImplementations.testPos34.nic.phy 	nbFramesWithoutInterferenceDropped 	0
scalar ApplicationClusteringImplementations.testPos35.nic.mac 	nbTxFrames 	0
scalar ApplicationClusteringImplementations.testPos35.nic.mac 	nbRxFrames 	0
scalar ApplicationClusteringImplementations.testPos35.nic.mac 	nbDroppedFrames 	0
scalar ApplicationClusteringImplementations.testPos35.nic.mac 	nbMissedAcks 	0
scalar ApplicationClusteringImplementations.testPos35.nic.mac 	nbRecvdAcks 	0
scalar ApplicationClusteringImplementations.testPos35.nic.mac 	nbTxAcks 	0
scalar ApplicationClusteringImplementations.testPos35.nic.mac 	nbDuplicates 	0
scalar ApplicationClusteringImplementations.testPos35.nic.mac 	meanBackoff 	0
scalar ApplicationClusteringImplementations.testPos35.nic.mac 	nbBackoffs 	0
scalar ApplicationClusteringImplementations.testPos35.nic.mac 	backoffDurations 	0
scalar ApplicationClusteringImplementations.testPos35.nic.phy 	nbFramesWithInterference 	0
scalar ApplicationClusteringImplementations.testPos35.nic.phy 	nbFramesWithoutInterference 	7
scalar ApplicationClusteringImplementations.testPos35.nic.phy 	nbFramesWithInterferencePartial 	0
scalar ApplicationClusteringImplementations.testPos35.nic.phy 	nbFramesWithoutInterferencePartial 	0
scalar ApplicationClusteringImplementations.testPos35.nic.phy 	nbFramesWithInterferenceDropped 	0
scalar ApplicationClusteringImplementations.testPos35.nic.phy 	nbFramesWithoutInterferenceDropped 	0
scalar ApplicationClusteringImplementations.testPos36.nic.mac 	nbTxFrames 	0
scalar ApplicationClusteringImplementations.testPos36.nic.mac 	nbRxFrames 	0
scalar ApplicationClusteringImplementations.testPos36.nic.mac 	nbDroppedFrames 	0
scalar ApplicationClusteringImplementations.testPos36.nic.mac 	nbMissedAcks 	0
scalar ApplicationClusteringImplementations.testPos36.nic.mac 	nbRecvdAcks 	0
scalar ApplicationClusteringImplementations.testPos36.nic.mac 	nbTxAcks 	0
scalar ApplicationClusteringImplementations.testPos36.nic.mac 	nbDuplicates 	0
scalar ApplicationClusteringImplementations.testPos36.nic.mac 	meanBackoff 	0
scalar ApplicationClusteringImplementations.testPos36.nic.mac 	nbBackoffs 	0
scalar ApplicationClusteringImplementations.testPos36.nic.mac 	backoffDurations 	0
scalar ApplicationClusteringImplementations.testPos36.nic.phy 	nbFramesWithInterference 	0
scalar ApplicationClusteringImplementations.testPos36.nic.phy 	nbFramesWithoutInterference 	3
scalar ApplicationClusteringImplementations.testPos36.nic.phy 	nbFramesWithInterferencePartial 	0
scalar ApplicationClusteringImplementations.testPos36.nic.phy 	nbFramesWithoutInterferencePartial 	0
scalar ApplicationClusteringImplementations.testPos36.nic.phy 	nbFramesWithInterferenceDropped 	0
scalar ApplicationClusteringImplementations.testPos36.nic.phy 	nbFramesWithoutInterferenceDropped 	0
scalar ApplicationClusteringImplementations.testPos37.nic.mac 	nbTxFrames 	0
scalar ApplicationClusteringImplementations.testPos37.nic.mac 	nbRxFrames 	0
scalar ApplicationClusteringImplementations.testPos37.nic.mac 	nbDroppedFrames 	0
scalar ApplicationClusteringImplementations.testPos37.nic.mac 	nbMissedAcks 	0
scalar ApplicationClusteringImplementations.testPos37.nic.mac 	nbRecvdAcks 	0
scalar ApplicationClusteringImplementations.testPos37.nic.mac 	nbTxAcks 	0
scalar ApplicationClusteringImplementations.testPos37.nic.mac 	nbDuplicates 	0
scalar ApplicationClusteringImplementations.testPos37.nic.mac 	meanBackoff 	0.6
scalar ApplicationClusteringImplementations.testPos37.nic.mac 	nbBackoffs 	1
scalar ApplicationClusteringImplementations.testPos37.nic.mac 	backoffDurations 	0.6
scalar ApplicationClusteringImplementations.testPos37.nic.phy 	nbFramesWithInterference 	0
scalar ApplicationClusteringImplementations.testPos37.nic.phy 	nbFramesWithoutInterference 	5
scalar ApplicationClusteringImplementations.testPos37.nic.phy 	nbFramesWithInterferencePartial 	0
scalar ApplicationClusteringImplementations.testPos37.nic.phy 	nbFramesWithoutInterferencePartial 	0
scalar ApplicationClusteringImplementations.testPos37.nic.phy 	nbFramesWithInterferenceDropped 	0
scalar ApplicationClusteringImplementations.testPos37.nic.phy 	nbFramesWithoutInterferenceDropped 	0
