version 2
run General-0-20151201-17:00:46-13941
attr configname General
attr datetime 20151201-17:00:46
attr experiment General
attr inifile omnetpp.ini
attr iterationvars ""
attr iterationvars2 $repetition=0
attr measurement ""
attr network ApplicationClusteringImplementations
attr processid 13941
attr repetition 0
attr replication #0
attr resultdir results
attr runnumber 0
attr seedset 0

scalar ApplicationClusteringImplementations.world 	#sent 	0
scalar ApplicationClusteringImplementations.world 	#received 	0
statistic ApplicationClusteringImplementations.world 	"hop count"
field count 0
field mean 0
field stddev -nan
field sum 0
field sqrsum 0
field min 0
field max 0
attr type  int
bin	-INF	0
bin	-1	0
bin	0	0
bin	1	0
scalar ApplicationClusteringImplementations.Node0.batteryStats 	nominal 	10800000
attr unit  mW-s
scalar ApplicationClusteringImplementations.Node0.batteryStats 	total 	290026.61270944
attr unit  mW-s
scalar ApplicationClusteringImplementations.Node0.batteryStats 	lifetime 	-1
attr unit  s
scalar ApplicationClusteringImplementations.Node0.batteryStats 	"Mean power consumption" 	14499.907426712
attr unit  mW
scalar ApplicationClusteringImplementations.Node0.nic.mac 	nbTxFrames 	0
scalar ApplicationClusteringImplementations.Node0.nic.mac 	nbRxFrames 	0
scalar ApplicationClusteringImplementations.Node0.nic.mac 	nbDroppedFrames 	0
scalar ApplicationClusteringImplementations.Node0.nic.mac 	nbMissedAcks 	0
scalar ApplicationClusteringImplementations.Node0.nic.mac 	nbRecvdAcks 	0
scalar ApplicationClusteringImplementations.Node0.nic.mac 	nbTxAcks 	0
scalar ApplicationClusteringImplementations.Node0.nic.mac 	nbDuplicates 	0
scalar ApplicationClusteringImplementations.Node0.nic.mac 	meanBackoff 	0
scalar ApplicationClusteringImplementations.Node0.nic.mac 	nbBackoffs 	0
scalar ApplicationClusteringImplementations.Node0.nic.mac 	backoffDurations 	0
scalar ApplicationClusteringImplementations.Node0.nic.phy 	nbFramesWithInterference 	0
scalar ApplicationClusteringImplementations.Node0.nic.phy 	nbFramesWithoutInterference 	0
scalar ApplicationClusteringImplementations.Node0.nic.phy 	nbFramesWithInterferencePartial 	0
scalar ApplicationClusteringImplementations.Node0.nic.phy 	nbFramesWithoutInterferencePartial 	0
scalar ApplicationClusteringImplementations.Node0.nic.phy 	nbFramesWithInterferenceDropped 	0
scalar ApplicationClusteringImplementations.Node0.nic.phy 	nbFramesWithoutInterferenceDropped 	0
scalar ApplicationClusteringImplementations.Node1.batteryStats 	nominal 	10800000
attr unit  mW-s
scalar ApplicationClusteringImplementations.Node1.batteryStats 	total 	290026.61270944
attr unit  mW-s
scalar ApplicationClusteringImplementations.Node1.batteryStats 	lifetime 	-1
attr unit  s
scalar ApplicationClusteringImplementations.Node1.batteryStats 	"Mean power consumption" 	14499.907426712
attr unit  mW
scalar ApplicationClusteringImplementations.Node1.nic.mac 	nbTxFrames 	0
scalar ApplicationClusteringImplementations.Node1.nic.mac 	nbRxFrames 	0
scalar ApplicationClusteringImplementations.Node1.nic.mac 	nbDroppedFrames 	0
scalar ApplicationClusteringImplementations.Node1.nic.mac 	nbMissedAcks 	0
scalar ApplicationClusteringImplementations.Node1.nic.mac 	nbRecvdAcks 	0
scalar ApplicationClusteringImplementations.Node1.nic.mac 	nbTxAcks 	0
scalar ApplicationClusteringImplementations.Node1.nic.mac 	nbDuplicates 	0
scalar ApplicationClusteringImplementations.Node1.nic.mac 	meanBackoff 	0
scalar ApplicationClusteringImplementations.Node1.nic.mac 	nbBackoffs 	0
scalar ApplicationClusteringImplementations.Node1.nic.mac 	backoffDurations 	0
scalar ApplicationClusteringImplementations.Node1.nic.phy 	nbFramesWithInterference 	0
scalar ApplicationClusteringImplementations.Node1.nic.phy 	nbFramesWithoutInterference 	0
scalar ApplicationClusteringImplementations.Node1.nic.phy 	nbFramesWithInterferencePartial 	0
scalar ApplicationClusteringImplementations.Node1.nic.phy 	nbFramesWithoutInterferencePartial 	0
scalar ApplicationClusteringImplementations.Node1.nic.phy 	nbFramesWithInterferenceDropped 	0
scalar ApplicationClusteringImplementations.Node1.nic.phy 	nbFramesWithoutInterferenceDropped 	0
scalar ApplicationClusteringImplementations.Node2.batteryStats 	nominal 	10800000
attr unit  mW-s
scalar ApplicationClusteringImplementations.Node2.batteryStats 	total 	290026.61270944
attr unit  mW-s
scalar ApplicationClusteringImplementations.Node2.batteryStats 	lifetime 	-1
attr unit  s
scalar ApplicationClusteringImplementations.Node2.batteryStats 	"Mean power consumption" 	14499.907426712
attr unit  mW
scalar ApplicationClusteringImplementations.Node2.nic.mac 	nbTxFrames 	0
scalar ApplicationClusteringImplementations.Node2.nic.mac 	nbRxFrames 	0
scalar ApplicationClusteringImplementations.Node2.nic.mac 	nbDroppedFrames 	0
scalar ApplicationClusteringImplementations.Node2.nic.mac 	nbMissedAcks 	0
scalar ApplicationClusteringImplementations.Node2.nic.mac 	nbRecvdAcks 	0
scalar ApplicationClusteringImplementations.Node2.nic.mac 	nbTxAcks 	0
scalar ApplicationClusteringImplementations.Node2.nic.mac 	nbDuplicates 	0
scalar ApplicationClusteringImplementations.Node2.nic.mac 	meanBackoff 	0
scalar ApplicationClusteringImplementations.Node2.nic.mac 	nbBackoffs 	0
scalar ApplicationClusteringImplementations.Node2.nic.mac 	backoffDurations 	0
scalar ApplicationClusteringImplementations.Node2.nic.phy 	nbFramesWithInterference 	0
scalar ApplicationClusteringImplementations.Node2.nic.phy 	nbFramesWithoutInterference 	0
scalar ApplicationClusteringImplementations.Node2.nic.phy 	nbFramesWithInterferencePartial 	0
scalar ApplicationClusteringImplementations.Node2.nic.phy 	nbFramesWithoutInterferencePartial 	0
scalar ApplicationClusteringImplementations.Node2.nic.phy 	nbFramesWithInterferenceDropped 	0
scalar ApplicationClusteringImplementations.Node2.nic.phy 	nbFramesWithoutInterferenceDropped 	0
scalar ApplicationClusteringImplementations.Node3.batteryStats 	nominal 	10800000
attr unit  mW-s
scalar ApplicationClusteringImplementations.Node3.batteryStats 	total 	290026.61270944
attr unit  mW-s
scalar ApplicationClusteringImplementations.Node3.batteryStats 	lifetime 	-1
attr unit  s
scalar ApplicationClusteringImplementations.Node3.batteryStats 	"Mean power consumption" 	14499.907426712
attr unit  mW
scalar ApplicationClusteringImplementations.Node3.nic.mac 	nbTxFrames 	0
scalar ApplicationClusteringImplementations.Node3.nic.mac 	nbRxFrames 	0
scalar ApplicationClusteringImplementations.Node3.nic.mac 	nbDroppedFrames 	0
scalar ApplicationClusteringImplementations.Node3.nic.mac 	nbMissedAcks 	0
scalar ApplicationClusteringImplementations.Node3.nic.mac 	nbRecvdAcks 	0
scalar ApplicationClusteringImplementations.Node3.nic.mac 	nbTxAcks 	0
scalar ApplicationClusteringImplementations.Node3.nic.mac 	nbDuplicates 	0
scalar ApplicationClusteringImplementations.Node3.nic.mac 	meanBackoff 	0
scalar ApplicationClusteringImplementations.Node3.nic.mac 	nbBackoffs 	0
scalar ApplicationClusteringImplementations.Node3.nic.mac 	backoffDurations 	0
scalar ApplicationClusteringImplementations.Node3.nic.phy 	nbFramesWithInterference 	0
scalar ApplicationClusteringImplementations.Node3.nic.phy 	nbFramesWithoutInterference 	0
scalar ApplicationClusteringImplementations.Node3.nic.phy 	nbFramesWithInterferencePartial 	0
scalar ApplicationClusteringImplementations.Node3.nic.phy 	nbFramesWithoutInterferencePartial 	0
scalar ApplicationClusteringImplementations.Node3.nic.phy 	nbFramesWithInterferenceDropped 	0
scalar ApplicationClusteringImplementations.Node3.nic.phy 	nbFramesWithoutInterferenceDropped 	0
scalar ApplicationClusteringImplementations.Node4.batteryStats 	nominal 	10800000
attr unit  mW-s
scalar ApplicationClusteringImplementations.Node4.batteryStats 	total 	290026.61270944
attr unit  mW-s
scalar ApplicationClusteringImplementations.Node4.batteryStats 	lifetime 	-1
attr unit  s
scalar ApplicationClusteringImplementations.Node4.batteryStats 	"Mean power consumption" 	14499.907426712
attr unit  mW
scalar ApplicationClusteringImplementations.Node4.nic.mac 	nbTxFrames 	0
scalar ApplicationClusteringImplementations.Node4.nic.mac 	nbRxFrames 	0
scalar ApplicationClusteringImplementations.Node4.nic.mac 	nbDroppedFrames 	0
scalar ApplicationClusteringImplementations.Node4.nic.mac 	nbMissedAcks 	0
scalar ApplicationClusteringImplementations.Node4.nic.mac 	nbRecvdAcks 	0
scalar ApplicationClusteringImplementations.Node4.nic.mac 	nbTxAcks 	0
scalar ApplicationClusteringImplementations.Node4.nic.mac 	nbDuplicates 	0
scalar ApplicationClusteringImplementations.Node4.nic.mac 	meanBackoff 	0
scalar ApplicationClusteringImplementations.Node4.nic.mac 	nbBackoffs 	0
scalar ApplicationClusteringImplementations.Node4.nic.mac 	backoffDurations 	0
scalar ApplicationClusteringImplementations.Node4.nic.phy 	nbFramesWithInterference 	0
scalar ApplicationClusteringImplementations.Node4.nic.phy 	nbFramesWithoutInterference 	0
scalar ApplicationClusteringImplementations.Node4.nic.phy 	nbFramesWithInterferencePartial 	0
scalar ApplicationClusteringImplementations.Node4.nic.phy 	nbFramesWithoutInterferencePartial 	0
scalar ApplicationClusteringImplementations.Node4.nic.phy 	nbFramesWithInterferenceDropped 	0
scalar ApplicationClusteringImplementations.Node4.nic.phy 	nbFramesWithoutInterferenceDropped 	0
scalar ApplicationClusteringImplementations.Node5.batteryStats 	nominal 	10800000
attr unit  mW-s
scalar ApplicationClusteringImplementations.Node5.batteryStats 	total 	290026.61270944
attr unit  mW-s
scalar ApplicationClusteringImplementations.Node5.batteryStats 	lifetime 	-1
attr unit  s
scalar ApplicationClusteringImplementations.Node5.batteryStats 	"Mean power consumption" 	14499.907426712
attr unit  mW
scalar ApplicationClusteringImplementations.Node5.nic.mac 	nbTxFrames 	0
scalar ApplicationClusteringImplementations.Node5.nic.mac 	nbRxFrames 	0
scalar ApplicationClusteringImplementations.Node5.nic.mac 	nbDroppedFrames 	0
scalar ApplicationClusteringImplementations.Node5.nic.mac 	nbMissedAcks 	0
scalar ApplicationClusteringImplementations.Node5.nic.mac 	nbRecvdAcks 	0
scalar ApplicationClusteringImplementations.Node5.nic.mac 	nbTxAcks 	0
scalar ApplicationClusteringImplementations.Node5.nic.mac 	nbDuplicates 	0
scalar ApplicationClusteringImplementations.Node5.nic.mac 	meanBackoff 	0
scalar ApplicationClusteringImplementations.Node5.nic.mac 	nbBackoffs 	0
scalar ApplicationClusteringImplementations.Node5.nic.mac 	backoffDurations 	0
scalar ApplicationClusteringImplementations.Node5.nic.phy 	nbFramesWithInterference 	0
scalar ApplicationClusteringImplementations.Node5.nic.phy 	nbFramesWithoutInterference 	0
scalar ApplicationClusteringImplementations.Node5.nic.phy 	nbFramesWithInterferencePartial 	0
scalar ApplicationClusteringImplementations.Node5.nic.phy 	nbFramesWithoutInterferencePartial 	0
scalar ApplicationClusteringImplementations.Node5.nic.phy 	nbFramesWithInterferenceDropped 	0
scalar ApplicationClusteringImplementations.Node5.nic.phy 	nbFramesWithoutInterferenceDropped 	0
scalar ApplicationClusteringImplementations.Node6.batteryStats 	nominal 	10800000
attr unit  mW-s
scalar ApplicationClusteringImplementations.Node6.batteryStats 	total 	290026.61270944
attr unit  mW-s
scalar ApplicationClusteringImplementations.Node6.batteryStats 	lifetime 	-1
attr unit  s
scalar ApplicationClusteringImplementations.Node6.batteryStats 	"Mean power consumption" 	14499.907426712
attr unit  mW
scalar ApplicationClusteringImplementations.Node6.nic.mac 	nbTxFrames 	0
scalar ApplicationClusteringImplementations.Node6.nic.mac 	nbRxFrames 	0
scalar ApplicationClusteringImplementations.Node6.nic.mac 	nbDroppedFrames 	0
scalar ApplicationClusteringImplementations.Node6.nic.mac 	nbMissedAcks 	0
scalar ApplicationClusteringImplementations.Node6.nic.mac 	nbRecvdAcks 	0
scalar ApplicationClusteringImplementations.Node6.nic.mac 	nbTxAcks 	0
scalar ApplicationClusteringImplementations.Node6.nic.mac 	nbDuplicates 	0
scalar ApplicationClusteringImplementations.Node6.nic.mac 	meanBackoff 	0
scalar ApplicationClusteringImplementations.Node6.nic.mac 	nbBackoffs 	0
scalar ApplicationClusteringImplementations.Node6.nic.mac 	backoffDurations 	0
scalar ApplicationClusteringImplementations.Node6.nic.phy 	nbFramesWithInterference 	0
scalar ApplicationClusteringImplementations.Node6.nic.phy 	nbFramesWithoutInterference 	0
scalar ApplicationClusteringImplementations.Node6.nic.phy 	nbFramesWithInterferencePartial 	0
scalar ApplicationClusteringImplementations.Node6.nic.phy 	nbFramesWithoutInterferencePartial 	0
scalar ApplicationClusteringImplementations.Node6.nic.phy 	nbFramesWithInterferenceDropped 	0
scalar ApplicationClusteringImplementations.Node6.nic.phy 	nbFramesWithoutInterferenceDropped 	0
scalar ApplicationClusteringImplementations.Node7.batteryStats 	nominal 	10800000
attr unit  mW-s
scalar ApplicationClusteringImplementations.Node7.batteryStats 	total 	290026.61270944
attr unit  mW-s
scalar ApplicationClusteringImplementations.Node7.batteryStats 	lifetime 	-1
attr unit  s
scalar ApplicationClusteringImplementations.Node7.batteryStats 	"Mean power consumption" 	14499.907426712
attr unit  mW
scalar ApplicationClusteringImplementations.Node7.nic.mac 	nbTxFrames 	0
scalar ApplicationClusteringImplementations.Node7.nic.mac 	nbRxFrames 	0
scalar ApplicationClusteringImplementations.Node7.nic.mac 	nbDroppedFrames 	0
scalar ApplicationClusteringImplementations.Node7.nic.mac 	nbMissedAcks 	0
scalar ApplicationClusteringImplementations.Node7.nic.mac 	nbRecvdAcks 	0
scalar ApplicationClusteringImplementations.Node7.nic.mac 	nbTxAcks 	0
scalar ApplicationClusteringImplementations.Node7.nic.mac 	nbDuplicates 	0
scalar ApplicationClusteringImplementations.Node7.nic.mac 	meanBackoff 	0
scalar ApplicationClusteringImplementations.Node7.nic.mac 	nbBackoffs 	0
scalar ApplicationClusteringImplementations.Node7.nic.mac 	backoffDurations 	0
scalar ApplicationClusteringImplementations.Node7.nic.phy 	nbFramesWithInterference 	0
scalar ApplicationClusteringImplementations.Node7.nic.phy 	nbFramesWithoutInterference 	0
scalar ApplicationClusteringImplementations.Node7.nic.phy 	nbFramesWithInterferencePartial 	0
scalar ApplicationClusteringImplementations.Node7.nic.phy 	nbFramesWithoutInterferencePartial 	0
scalar ApplicationClusteringImplementations.Node7.nic.phy 	nbFramesWithInterferenceDropped 	0
scalar ApplicationClusteringImplementations.Node7.nic.phy 	nbFramesWithoutInterferenceDropped 	0
scalar ApplicationClusteringImplementations.Node8.batteryStats 	nominal 	10800000
attr unit  mW-s
scalar ApplicationClusteringImplementations.Node8.batteryStats 	total 	290026.61270944
attr unit  mW-s
scalar ApplicationClusteringImplementations.Node8.batteryStats 	lifetime 	-1
attr unit  s
scalar ApplicationClusteringImplementations.Node8.batteryStats 	"Mean power consumption" 	14499.907426712
attr unit  mW
scalar ApplicationClusteringImplementations.Node8.nic.mac 	nbTxFrames 	0
scalar ApplicationClusteringImplementations.Node8.nic.mac 	nbRxFrames 	0
scalar ApplicationClusteringImplementations.Node8.nic.mac 	nbDroppedFrames 	0
scalar ApplicationClusteringImplementations.Node8.nic.mac 	nbMissedAcks 	0
scalar ApplicationClusteringImplementations.Node8.nic.mac 	nbRecvdAcks 	0
scalar ApplicationClusteringImplementations.Node8.nic.mac 	nbTxAcks 	0
scalar ApplicationClusteringImplementations.Node8.nic.mac 	nbDuplicates 	0
scalar ApplicationClusteringImplementations.Node8.nic.mac 	meanBackoff 	0
scalar ApplicationClusteringImplementations.Node8.nic.mac 	nbBackoffs 	0
scalar ApplicationClusteringImplementations.Node8.nic.mac 	backoffDurations 	0
scalar ApplicationClusteringImplementations.Node8.nic.phy 	nbFramesWithInterference 	0
scalar ApplicationClusteringImplementations.Node8.nic.phy 	nbFramesWithoutInterference 	0
scalar ApplicationClusteringImplementations.Node8.nic.phy 	nbFramesWithInterferencePartial 	0
scalar ApplicationClusteringImplementations.Node8.nic.phy 	nbFramesWithoutInterferencePartial 	0
scalar ApplicationClusteringImplementations.Node8.nic.phy 	nbFramesWithInterferenceDropped 	0
scalar ApplicationClusteringImplementations.Node8.nic.phy 	nbFramesWithoutInterferenceDropped 	0
scalar ApplicationClusteringImplementations.Node9.batteryStats 	nominal 	10800000
attr unit  mW-s
scalar ApplicationClusteringImplementations.Node9.batteryStats 	total 	290026.61270944
attr unit  mW-s
scalar ApplicationClusteringImplementations.Node9.batteryStats 	lifetime 	-1
attr unit  s
scalar ApplicationClusteringImplementations.Node9.batteryStats 	"Mean power consumption" 	14499.907426712
attr unit  mW
scalar ApplicationClusteringImplementations.Node9.nic.mac 	nbTxFrames 	0
scalar ApplicationClusteringImplementations.Node9.nic.mac 	nbRxFrames 	0
scalar ApplicationClusteringImplementations.Node9.nic.mac 	nbDroppedFrames 	0
scalar ApplicationClusteringImplementations.Node9.nic.mac 	nbMissedAcks 	0
scalar ApplicationClusteringImplementations.Node9.nic.mac 	nbRecvdAcks 	0
scalar ApplicationClusteringImplementations.Node9.nic.mac 	nbTxAcks 	0
scalar ApplicationClusteringImplementations.Node9.nic.mac 	nbDuplicates 	0
scalar ApplicationClusteringImplementations.Node9.nic.mac 	meanBackoff 	0
scalar ApplicationClusteringImplementations.Node9.nic.mac 	nbBackoffs 	0
scalar ApplicationClusteringImplementations.Node9.nic.mac 	backoffDurations 	0
scalar ApplicationClusteringImplementations.Node9.nic.phy 	nbFramesWithInterference 	0
scalar ApplicationClusteringImplementations.Node9.nic.phy 	nbFramesWithoutInterference 	0
scalar ApplicationClusteringImplementations.Node9.nic.phy 	nbFramesWithInterferencePartial 	0
scalar ApplicationClusteringImplementations.Node9.nic.phy 	nbFramesWithoutInterferencePartial 	0
scalar ApplicationClusteringImplementations.Node9.nic.phy 	nbFramesWithInterferenceDropped 	0
scalar ApplicationClusteringImplementations.Node9.nic.phy 	nbFramesWithoutInterferenceDropped 	0
scalar ApplicationClusteringImplementations.Node10.batteryStats 	nominal 	10800000
attr unit  mW-s
scalar ApplicationClusteringImplementations.Node10.batteryStats 	total 	290026.61270944
attr unit  mW-s
scalar ApplicationClusteringImplementations.Node10.batteryStats 	lifetime 	-1
attr unit  s
scalar ApplicationClusteringImplementations.Node10.batteryStats 	"Mean power consumption" 	14499.907426712
attr unit  mW
scalar ApplicationClusteringImplementations.Node10.nic.mac 	nbTxFrames 	0
scalar ApplicationClusteringImplementations.Node10.nic.mac 	nbRxFrames 	0
scalar ApplicationClusteringImplementations.Node10.nic.mac 	nbDroppedFrames 	0
scalar ApplicationClusteringImplementations.Node10.nic.mac 	nbMissedAcks 	0
scalar ApplicationClusteringImplementations.Node10.nic.mac 	nbRecvdAcks 	0
scalar ApplicationClusteringImplementations.Node10.nic.mac 	nbTxAcks 	0
scalar ApplicationClusteringImplementations.Node10.nic.mac 	nbDuplicates 	0
scalar ApplicationClusteringImplementations.Node10.nic.mac 	meanBackoff 	0
scalar ApplicationClusteringImplementations.Node10.nic.mac 	nbBackoffs 	0
scalar ApplicationClusteringImplementations.Node10.nic.mac 	backoffDurations 	0
scalar ApplicationClusteringImplementations.Node10.nic.phy 	nbFramesWithInterference 	0
scalar ApplicationClusteringImplementations.Node10.nic.phy 	nbFramesWithoutInterference 	0
scalar ApplicationClusteringImplementations.Node10.nic.phy 	nbFramesWithInterferencePartial 	0
scalar ApplicationClusteringImplementations.Node10.nic.phy 	nbFramesWithoutInterferencePartial 	0
scalar ApplicationClusteringImplementations.Node10.nic.phy 	nbFramesWithInterferenceDropped 	0
scalar ApplicationClusteringImplementations.Node10.nic.phy 	nbFramesWithoutInterferenceDropped 	0
scalar ApplicationClusteringImplementations.Node11.batteryStats 	nominal 	10800000
attr unit  mW-s
scalar ApplicationClusteringImplementations.Node11.batteryStats 	total 	290026.61270944
attr unit  mW-s
scalar ApplicationClusteringImplementations.Node11.batteryStats 	lifetime 	-1
attr unit  s
scalar ApplicationClusteringImplementations.Node11.batteryStats 	"Mean power consumption" 	14499.907426712
attr unit  mW
scalar ApplicationClusteringImplementations.Node11.nic.mac 	nbTxFrames 	0
scalar ApplicationClusteringImplementations.Node11.nic.mac 	nbRxFrames 	0
scalar ApplicationClusteringImplementations.Node11.nic.mac 	nbDroppedFrames 	0
scalar ApplicationClusteringImplementations.Node11.nic.mac 	nbMissedAcks 	0
scalar ApplicationClusteringImplementations.Node11.nic.mac 	nbRecvdAcks 	0
scalar ApplicationClusteringImplementations.Node11.nic.mac 	nbTxAcks 	0
scalar ApplicationClusteringImplementations.Node11.nic.mac 	nbDuplicates 	0
scalar ApplicationClusteringImplementations.Node11.nic.mac 	meanBackoff 	0
scalar ApplicationClusteringImplementations.Node11.nic.mac 	nbBackoffs 	0
scalar ApplicationClusteringImplementations.Node11.nic.mac 	backoffDurations 	0
scalar ApplicationClusteringImplementations.Node11.nic.phy 	nbFramesWithInterference 	0
scalar ApplicationClusteringImplementations.Node11.nic.phy 	nbFramesWithoutInterference 	0
scalar ApplicationClusteringImplementations.Node11.nic.phy 	nbFramesWithInterferencePartial 	0
scalar ApplicationClusteringImplementations.Node11.nic.phy 	nbFramesWithoutInterferencePartial 	0
scalar ApplicationClusteringImplementations.Node11.nic.phy 	nbFramesWithInterferenceDropped 	0
scalar ApplicationClusteringImplementations.Node11.nic.phy 	nbFramesWithoutInterferenceDropped 	0
scalar ApplicationClusteringImplementations.Node12.batteryStats 	nominal 	10800000
attr unit  mW-s
scalar ApplicationClusteringImplementations.Node12.batteryStats 	total 	290026.61270944
attr unit  mW-s
scalar ApplicationClusteringImplementations.Node12.batteryStats 	lifetime 	-1
attr unit  s
scalar ApplicationClusteringImplementations.Node12.batteryStats 	"Mean power consumption" 	14499.907426712
attr unit  mW
scalar ApplicationClusteringImplementations.Node12.nic.mac 	nbTxFrames 	0
scalar ApplicationClusteringImplementations.Node12.nic.mac 	nbRxFrames 	0
scalar ApplicationClusteringImplementations.Node12.nic.mac 	nbDroppedFrames 	0
scalar ApplicationClusteringImplementations.Node12.nic.mac 	nbMissedAcks 	0
scalar ApplicationClusteringImplementations.Node12.nic.mac 	nbRecvdAcks 	0
scalar ApplicationClusteringImplementations.Node12.nic.mac 	nbTxAcks 	0
scalar ApplicationClusteringImplementations.Node12.nic.mac 	nbDuplicates 	0
scalar ApplicationClusteringImplementations.Node12.nic.mac 	meanBackoff 	0
scalar ApplicationClusteringImplementations.Node12.nic.mac 	nbBackoffs 	0
scalar ApplicationClusteringImplementations.Node12.nic.mac 	backoffDurations 	0
scalar ApplicationClusteringImplementations.Node12.nic.phy 	nbFramesWithInterference 	0
scalar ApplicationClusteringImplementations.Node12.nic.phy 	nbFramesWithoutInterference 	0
scalar ApplicationClusteringImplementations.Node12.nic.phy 	nbFramesWithInterferencePartial 	0
scalar ApplicationClusteringImplementations.Node12.nic.phy 	nbFramesWithoutInterferencePartial 	0
scalar ApplicationClusteringImplementations.Node12.nic.phy 	nbFramesWithInterferenceDropped 	0
scalar ApplicationClusteringImplementations.Node12.nic.phy 	nbFramesWithoutInterferenceDropped 	0
scalar ApplicationClusteringImplementations.Node13.batteryStats 	nominal 	10800000
attr unit  mW-s
scalar ApplicationClusteringImplementations.Node13.batteryStats 	total 	290034.97519872
attr unit  mW-s
scalar ApplicationClusteringImplementations.Node13.batteryStats 	lifetime 	-1
attr unit  s
scalar ApplicationClusteringImplementations.Node13.batteryStats 	"Mean power consumption" 	14500.32551014
attr unit  mW
scalar ApplicationClusteringImplementations.Node13.nic.mac 	nbTxFrames 	0
scalar ApplicationClusteringImplementations.Node13.nic.mac 	nbRxFrames 	0
scalar ApplicationClusteringImplementations.Node13.nic.mac 	nbDroppedFrames 	0
scalar ApplicationClusteringImplementations.Node13.nic.mac 	nbMissedAcks 	0
scalar ApplicationClusteringImplementations.Node13.nic.mac 	nbRecvdAcks 	0
scalar ApplicationClusteringImplementations.Node13.nic.mac 	nbTxAcks 	0
scalar ApplicationClusteringImplementations.Node13.nic.mac 	nbDuplicates 	0
scalar ApplicationClusteringImplementations.Node13.nic.mac 	meanBackoff 	0
scalar ApplicationClusteringImplementations.Node13.nic.mac 	nbBackoffs 	0
scalar ApplicationClusteringImplementations.Node13.nic.mac 	backoffDurations 	0
scalar ApplicationClusteringImplementations.Node13.nic.phy 	nbFramesWithInterference 	0
scalar ApplicationClusteringImplementations.Node13.nic.phy 	nbFramesWithoutInterference 	0
scalar ApplicationClusteringImplementations.Node13.nic.phy 	nbFramesWithInterferencePartial 	0
scalar ApplicationClusteringImplementations.Node13.nic.phy 	nbFramesWithoutInterferencePartial 	0
scalar ApplicationClusteringImplementations.Node13.nic.phy 	nbFramesWithInterferenceDropped 	0
scalar ApplicationClusteringImplementations.Node13.nic.phy 	nbFramesWithoutInterferenceDropped 	0
scalar ApplicationClusteringImplementations.Node14.batteryStats 	nominal 	10800000
attr unit  mW-s
scalar ApplicationClusteringImplementations.Node14.batteryStats 	total 	290026.61270944
attr unit  mW-s
scalar ApplicationClusteringImplementations.Node14.batteryStats 	lifetime 	-1
attr unit  s
scalar ApplicationClusteringImplementations.Node14.batteryStats 	"Mean power consumption" 	14499.907426712
attr unit  mW
scalar ApplicationClusteringImplementations.Node14.nic.mac 	nbTxFrames 	0
scalar ApplicationClusteringImplementations.Node14.nic.mac 	nbRxFrames 	0
scalar ApplicationClusteringImplementations.Node14.nic.mac 	nbDroppedFrames 	0
scalar ApplicationClusteringImplementations.Node14.nic.mac 	nbMissedAcks 	0
scalar ApplicationClusteringImplementations.Node14.nic.mac 	nbRecvdAcks 	0
scalar ApplicationClusteringImplementations.Node14.nic.mac 	nbTxAcks 	0
scalar ApplicationClusteringImplementations.Node14.nic.mac 	nbDuplicates 	0
scalar ApplicationClusteringImplementations.Node14.nic.mac 	meanBackoff 	0
scalar ApplicationClusteringImplementations.Node14.nic.mac 	nbBackoffs 	0
scalar ApplicationClusteringImplementations.Node14.nic.mac 	backoffDurations 	0
scalar ApplicationClusteringImplementations.Node14.nic.phy 	nbFramesWithInterference 	0
scalar ApplicationClusteringImplementations.Node14.nic.phy 	nbFramesWithoutInterference 	0
scalar ApplicationClusteringImplementations.Node14.nic.phy 	nbFramesWithInterferencePartial 	0
scalar ApplicationClusteringImplementations.Node14.nic.phy 	nbFramesWithoutInterferencePartial 	0
scalar ApplicationClusteringImplementations.Node14.nic.phy 	nbFramesWithInterferenceDropped 	0
scalar ApplicationClusteringImplementations.Node14.nic.phy 	nbFramesWithoutInterferenceDropped 	0
scalar ApplicationClusteringImplementations.Node15.batteryStats 	nominal 	10800000
attr unit  mW-s
scalar ApplicationClusteringImplementations.Node15.batteryStats 	total 	290026.61270944
attr unit  mW-s
scalar ApplicationClusteringImplementations.Node15.batteryStats 	lifetime 	-1
attr unit  s
scalar ApplicationClusteringImplementations.Node15.batteryStats 	"Mean power consumption" 	14499.907426712
attr unit  mW
scalar ApplicationClusteringImplementations.Node15.nic.mac 	nbTxFrames 	0
scalar ApplicationClusteringImplementations.Node15.nic.mac 	nbRxFrames 	0
scalar ApplicationClusteringImplementations.Node15.nic.mac 	nbDroppedFrames 	0
scalar ApplicationClusteringImplementations.Node15.nic.mac 	nbMissedAcks 	0
scalar ApplicationClusteringImplementations.Node15.nic.mac 	nbRecvdAcks 	0
scalar ApplicationClusteringImplementations.Node15.nic.mac 	nbTxAcks 	0
scalar ApplicationClusteringImplementations.Node15.nic.mac 	nbDuplicates 	0
scalar ApplicationClusteringImplementations.Node15.nic.mac 	meanBackoff 	0
scalar ApplicationClusteringImplementations.Node15.nic.mac 	nbBackoffs 	0
scalar ApplicationClusteringImplementations.Node15.nic.mac 	backoffDurations 	0
scalar ApplicationClusteringImplementations.Node15.nic.phy 	nbFramesWithInterference 	0
scalar ApplicationClusteringImplementations.Node15.nic.phy 	nbFramesWithoutInterference 	0
scalar ApplicationClusteringImplementations.Node15.nic.phy 	nbFramesWithInterferencePartial 	0
scalar ApplicationClusteringImplementations.Node15.nic.phy 	nbFramesWithoutInterferencePartial 	0
scalar ApplicationClusteringImplementations.Node15.nic.phy 	nbFramesWithInterferenceDropped 	0
scalar ApplicationClusteringImplementations.Node15.nic.phy 	nbFramesWithoutInterferenceDropped 	0
scalar ApplicationClusteringImplementations.Node16.batteryStats 	nominal 	10800000
attr unit  mW-s
scalar ApplicationClusteringImplementations.Node16.batteryStats 	total 	290026.61270944
attr unit  mW-s
scalar ApplicationClusteringImplementations.Node16.batteryStats 	lifetime 	-1
attr unit  s
scalar ApplicationClusteringImplementations.Node16.batteryStats 	"Mean power consumption" 	14499.907426712
attr unit  mW
scalar ApplicationClusteringImplementations.Node16.nic.mac 	nbTxFrames 	0
scalar ApplicationClusteringImplementations.Node16.nic.mac 	nbRxFrames 	0
scalar ApplicationClusteringImplementations.Node16.nic.mac 	nbDroppedFrames 	0
scalar ApplicationClusteringImplementations.Node16.nic.mac 	nbMissedAcks 	0
scalar ApplicationClusteringImplementations.Node16.nic.mac 	nbRecvdAcks 	0
scalar ApplicationClusteringImplementations.Node16.nic.mac 	nbTxAcks 	0
scalar ApplicationClusteringImplementations.Node16.nic.mac 	nbDuplicates 	0
scalar ApplicationClusteringImplementations.Node16.nic.mac 	meanBackoff 	0
scalar ApplicationClusteringImplementations.Node16.nic.mac 	nbBackoffs 	0
scalar ApplicationClusteringImplementations.Node16.nic.mac 	backoffDurations 	0
scalar ApplicationClusteringImplementations.Node16.nic.phy 	nbFramesWithInterference 	0
scalar ApplicationClusteringImplementations.Node16.nic.phy 	nbFramesWithoutInterference 	0
scalar ApplicationClusteringImplementations.Node16.nic.phy 	nbFramesWithInterferencePartial 	0
scalar ApplicationClusteringImplementations.Node16.nic.phy 	nbFramesWithoutInterferencePartial 	0
scalar ApplicationClusteringImplementations.Node16.nic.phy 	nbFramesWithInterferenceDropped 	0
scalar ApplicationClusteringImplementations.Node16.nic.phy 	nbFramesWithoutInterferenceDropped 	0
