version 2
run General-0-20151127-08:06:55-12378
attr configname General
attr datetime 20151127-08:06:55
attr experiment General
attr inifile omnetpp.ini
attr iterationvars ""
attr iterationvars2 $repetition=0
attr measurement ""
attr network ApplicationClusteringImplementations
attr processid 12378
attr repetition 0
attr replication #0
attr resultdir results
attr runnumber 0
attr seedset 0

scalar ApplicationClusteringImplementations.world 	#sent 	0
scalar ApplicationClusteringImplementations.world 	#received 	0
statistic ApplicationClusteringImplementations.world 	"hop count"
field count 0
field mean 0
field stddev -nan
field sum 0
field sqrsum 0
field min 0
field max 0
attr type  int
bin	-INF	0
bin	-1	0
bin	0	0
bin	1	0
scalar ApplicationClusteringImplementations.TemperatureSensorNode0.batteryStats 	nominal 	10800000
attr unit  mW-s
scalar ApplicationClusteringImplementations.TemperatureSensorNode0.batteryStats 	total 	50000
attr unit  mW-s
scalar ApplicationClusteringImplementations.TemperatureSensorNode0.batteryStats 	lifetime 	-1
attr unit  s
scalar ApplicationClusteringImplementations.TemperatureSensorNode0.batteryStats 	"Mean power consumption" 	inf
attr unit  mW
scalar ApplicationClusteringImplementations.TemperatureSensorNode0.nic.mac 	nbTxFrames 	0
scalar ApplicationClusteringImplementations.TemperatureSensorNode0.nic.mac 	nbRxFrames 	0
scalar ApplicationClusteringImplementations.TemperatureSensorNode0.nic.mac 	nbDroppedFrames 	0
scalar ApplicationClusteringImplementations.TemperatureSensorNode0.nic.mac 	nbMissedAcks 	0
scalar ApplicationClusteringImplementations.TemperatureSensorNode0.nic.mac 	nbRecvdAcks 	0
scalar ApplicationClusteringImplementations.TemperatureSensorNode0.nic.mac 	nbTxAcks 	0
scalar ApplicationClusteringImplementations.TemperatureSensorNode0.nic.mac 	nbDuplicates 	0
scalar ApplicationClusteringImplementations.TemperatureSensorNode0.nic.mac 	meanBackoff 	0
scalar ApplicationClusteringImplementations.TemperatureSensorNode0.nic.mac 	nbBackoffs 	0
scalar ApplicationClusteringImplementations.TemperatureSensorNode0.nic.mac 	backoffDurations 	0
scalar ApplicationClusteringImplementations.TemperatureSensorNode0.nic.phy 	nbFramesWithInterference 	0
scalar ApplicationClusteringImplementations.TemperatureSensorNode0.nic.phy 	nbFramesWithoutInterference 	0
scalar ApplicationClusteringImplementations.TemperatureSensorNode0.nic.phy 	nbFramesWithInterferencePartial 	0
scalar ApplicationClusteringImplementations.TemperatureSensorNode0.nic.phy 	nbFramesWithoutInterferencePartial 	0
scalar ApplicationClusteringImplementations.TemperatureSensorNode0.nic.phy 	nbFramesWithInterferenceDropped 	0
scalar ApplicationClusteringImplementations.TemperatureSensorNode0.nic.phy 	nbFramesWithoutInterferenceDropped 	0
scalar ApplicationClusteringImplementations.TemperatureSensorNode1.batteryStats 	nominal 	10800000
attr unit  mW-s
scalar ApplicationClusteringImplementations.TemperatureSensorNode1.batteryStats 	total 	50000
attr unit  mW-s
scalar ApplicationClusteringImplementations.TemperatureSensorNode1.batteryStats 	lifetime 	-1
attr unit  s
scalar ApplicationClusteringImplementations.TemperatureSensorNode1.batteryStats 	"Mean power consumption" 	inf
attr unit  mW
scalar ApplicationClusteringImplementations.TemperatureSensorNode1.nic.mac 	nbTxFrames 	0
scalar ApplicationClusteringImplementations.TemperatureSensorNode1.nic.mac 	nbRxFrames 	0
scalar ApplicationClusteringImplementations.TemperatureSensorNode1.nic.mac 	nbDroppedFrames 	0
scalar ApplicationClusteringImplementations.TemperatureSensorNode1.nic.mac 	nbMissedAcks 	0
scalar ApplicationClusteringImplementations.TemperatureSensorNode1.nic.mac 	nbRecvdAcks 	0
scalar ApplicationClusteringImplementations.TemperatureSensorNode1.nic.mac 	nbTxAcks 	0
scalar ApplicationClusteringImplementations.TemperatureSensorNode1.nic.mac 	nbDuplicates 	0
scalar ApplicationClusteringImplementations.TemperatureSensorNode1.nic.mac 	meanBackoff 	0
scalar ApplicationClusteringImplementations.TemperatureSensorNode1.nic.mac 	nbBackoffs 	0
scalar ApplicationClusteringImplementations.TemperatureSensorNode1.nic.mac 	backoffDurations 	0
scalar ApplicationClusteringImplementations.TemperatureSensorNode1.nic.phy 	nbFramesWithInterference 	0
scalar ApplicationClusteringImplementations.TemperatureSensorNode1.nic.phy 	nbFramesWithoutInterference 	0
scalar ApplicationClusteringImplementations.TemperatureSensorNode1.nic.phy 	nbFramesWithInterferencePartial 	0
scalar ApplicationClusteringImplementations.TemperatureSensorNode1.nic.phy 	nbFramesWithoutInterferencePartial 	0
scalar ApplicationClusteringImplementations.TemperatureSensorNode1.nic.phy 	nbFramesWithInterferenceDropped 	0
scalar ApplicationClusteringImplementations.TemperatureSensorNode1.nic.phy 	nbFramesWithoutInterferenceDropped 	0
scalar ApplicationClusteringImplementations.TemperatureSensorNode2.batteryStats 	nominal 	10800000
attr unit  mW-s
scalar ApplicationClusteringImplementations.TemperatureSensorNode2.batteryStats 	total 	50000
attr unit  mW-s
scalar ApplicationClusteringImplementations.TemperatureSensorNode2.batteryStats 	lifetime 	-1
attr unit  s
scalar ApplicationClusteringImplementations.TemperatureSensorNode2.batteryStats 	"Mean power consumption" 	inf
attr unit  mW
scalar ApplicationClusteringImplementations.TemperatureSensorNode2.nic.mac 	nbTxFrames 	0
scalar ApplicationClusteringImplementations.TemperatureSensorNode2.nic.mac 	nbRxFrames 	0
scalar ApplicationClusteringImplementations.TemperatureSensorNode2.nic.mac 	nbDroppedFrames 	0
scalar ApplicationClusteringImplementations.TemperatureSensorNode2.nic.mac 	nbMissedAcks 	0
scalar ApplicationClusteringImplementations.TemperatureSensorNode2.nic.mac 	nbRecvdAcks 	0
scalar ApplicationClusteringImplementations.TemperatureSensorNode2.nic.mac 	nbTxAcks 	0
scalar ApplicationClusteringImplementations.TemperatureSensorNode2.nic.mac 	nbDuplicates 	0
scalar ApplicationClusteringImplementations.TemperatureSensorNode2.nic.mac 	meanBackoff 	0
scalar ApplicationClusteringImplementations.TemperatureSensorNode2.nic.mac 	nbBackoffs 	0
scalar ApplicationClusteringImplementations.TemperatureSensorNode2.nic.mac 	backoffDurations 	0
scalar ApplicationClusteringImplementations.TemperatureSensorNode2.nic.phy 	nbFramesWithInterference 	0
scalar ApplicationClusteringImplementations.TemperatureSensorNode2.nic.phy 	nbFramesWithoutInterference 	0
scalar ApplicationClusteringImplementations.TemperatureSensorNode2.nic.phy 	nbFramesWithInterferencePartial 	0
scalar ApplicationClusteringImplementations.TemperatureSensorNode2.nic.phy 	nbFramesWithoutInterferencePartial 	0
scalar ApplicationClusteringImplementations.TemperatureSensorNode2.nic.phy 	nbFramesWithInterferenceDropped 	0
scalar ApplicationClusteringImplementations.TemperatureSensorNode2.nic.phy 	nbFramesWithoutInterferenceDropped 	0
scalar ApplicationClusteringImplementations.TemperatureSensorNode3.batteryStats 	nominal 	10800000
attr unit  mW-s
scalar ApplicationClusteringImplementations.TemperatureSensorNode3.batteryStats 	total 	50000
attr unit  mW-s
scalar ApplicationClusteringImplementations.TemperatureSensorNode3.batteryStats 	lifetime 	-1
attr unit  s
scalar ApplicationClusteringImplementations.TemperatureSensorNode3.batteryStats 	"Mean power consumption" 	inf
attr unit  mW
scalar ApplicationClusteringImplementations.TemperatureSensorNode3.nic.mac 	nbTxFrames 	0
scalar ApplicationClusteringImplementations.TemperatureSensorNode3.nic.mac 	nbRxFrames 	0
scalar ApplicationClusteringImplementations.TemperatureSensorNode3.nic.mac 	nbDroppedFrames 	0
scalar ApplicationClusteringImplementations.TemperatureSensorNode3.nic.mac 	nbMissedAcks 	0
scalar ApplicationClusteringImplementations.TemperatureSensorNode3.nic.mac 	nbRecvdAcks 	0
scalar ApplicationClusteringImplementations.TemperatureSensorNode3.nic.mac 	nbTxAcks 	0
scalar ApplicationClusteringImplementations.TemperatureSensorNode3.nic.mac 	nbDuplicates 	0
scalar ApplicationClusteringImplementations.TemperatureSensorNode3.nic.mac 	meanBackoff 	0
scalar ApplicationClusteringImplementations.TemperatureSensorNode3.nic.mac 	nbBackoffs 	0
scalar ApplicationClusteringImplementations.TemperatureSensorNode3.nic.mac 	backoffDurations 	0
scalar ApplicationClusteringImplementations.TemperatureSensorNode3.nic.phy 	nbFramesWithInterference 	0
scalar ApplicationClusteringImplementations.TemperatureSensorNode3.nic.phy 	nbFramesWithoutInterference 	0
scalar ApplicationClusteringImplementations.TemperatureSensorNode3.nic.phy 	nbFramesWithInterferencePartial 	0
scalar ApplicationClusteringImplementations.TemperatureSensorNode3.nic.phy 	nbFramesWithoutInterferencePartial 	0
scalar ApplicationClusteringImplementations.TemperatureSensorNode3.nic.phy 	nbFramesWithInterferenceDropped 	0
scalar ApplicationClusteringImplementations.TemperatureSensorNode3.nic.phy 	nbFramesWithoutInterferenceDropped 	0
scalar ApplicationClusteringImplementations.TemperatureSensorNode4.batteryStats 	nominal 	10800000
attr unit  mW-s
scalar ApplicationClusteringImplementations.TemperatureSensorNode4.batteryStats 	total 	50000
attr unit  mW-s
scalar ApplicationClusteringImplementations.TemperatureSensorNode4.batteryStats 	lifetime 	-1
attr unit  s
scalar ApplicationClusteringImplementations.TemperatureSensorNode4.batteryStats 	"Mean power consumption" 	inf
attr unit  mW
scalar ApplicationClusteringImplementations.TemperatureSensorNode4.nic.mac 	nbTxFrames 	0
scalar ApplicationClusteringImplementations.TemperatureSensorNode4.nic.mac 	nbRxFrames 	0
scalar ApplicationClusteringImplementations.TemperatureSensorNode4.nic.mac 	nbDroppedFrames 	0
scalar ApplicationClusteringImplementations.TemperatureSensorNode4.nic.mac 	nbMissedAcks 	0
scalar ApplicationClusteringImplementations.TemperatureSensorNode4.nic.mac 	nbRecvdAcks 	0
scalar ApplicationClusteringImplementations.TemperatureSensorNode4.nic.mac 	nbTxAcks 	0
scalar ApplicationClusteringImplementations.TemperatureSensorNode4.nic.mac 	nbDuplicates 	0
scalar ApplicationClusteringImplementations.TemperatureSensorNode4.nic.mac 	meanBackoff 	0
scalar ApplicationClusteringImplementations.TemperatureSensorNode4.nic.mac 	nbBackoffs 	0
scalar ApplicationClusteringImplementations.TemperatureSensorNode4.nic.mac 	backoffDurations 	0
scalar ApplicationClusteringImplementations.TemperatureSensorNode4.nic.phy 	nbFramesWithInterference 	0
scalar ApplicationClusteringImplementations.TemperatureSensorNode4.nic.phy 	nbFramesWithoutInterference 	0
scalar ApplicationClusteringImplementations.TemperatureSensorNode4.nic.phy 	nbFramesWithInterferencePartial 	0
scalar ApplicationClusteringImplementations.TemperatureSensorNode4.nic.phy 	nbFramesWithoutInterferencePartial 	0
scalar ApplicationClusteringImplementations.TemperatureSensorNode4.nic.phy 	nbFramesWithInterferenceDropped 	0
scalar ApplicationClusteringImplementations.TemperatureSensorNode4.nic.phy 	nbFramesWithoutInterferenceDropped 	0
scalar ApplicationClusteringImplementations.TemperatureSensorNode5.batteryStats 	nominal 	10800000
attr unit  mW-s
scalar ApplicationClusteringImplementations.TemperatureSensorNode5.batteryStats 	total 	50000
attr unit  mW-s
scalar ApplicationClusteringImplementations.TemperatureSensorNode5.batteryStats 	lifetime 	-1
attr unit  s
scalar ApplicationClusteringImplementations.TemperatureSensorNode5.batteryStats 	"Mean power consumption" 	inf
attr unit  mW
scalar ApplicationClusteringImplementations.TemperatureSensorNode5.nic.mac 	nbTxFrames 	0
scalar ApplicationClusteringImplementations.TemperatureSensorNode5.nic.mac 	nbRxFrames 	0
scalar ApplicationClusteringImplementations.TemperatureSensorNode5.nic.mac 	nbDroppedFrames 	0
scalar ApplicationClusteringImplementations.TemperatureSensorNode5.nic.mac 	nbMissedAcks 	0
scalar ApplicationClusteringImplementations.TemperatureSensorNode5.nic.mac 	nbRecvdAcks 	0
scalar ApplicationClusteringImplementations.TemperatureSensorNode5.nic.mac 	nbTxAcks 	0
scalar ApplicationClusteringImplementations.TemperatureSensorNode5.nic.mac 	nbDuplicates 	0
scalar ApplicationClusteringImplementations.TemperatureSensorNode5.nic.mac 	meanBackoff 	0
scalar ApplicationClusteringImplementations.TemperatureSensorNode5.nic.mac 	nbBackoffs 	0
scalar ApplicationClusteringImplementations.TemperatureSensorNode5.nic.mac 	backoffDurations 	0
scalar ApplicationClusteringImplementations.TemperatureSensorNode5.nic.phy 	nbFramesWithInterference 	0
scalar ApplicationClusteringImplementations.TemperatureSensorNode5.nic.phy 	nbFramesWithoutInterference 	0
scalar ApplicationClusteringImplementations.TemperatureSensorNode5.nic.phy 	nbFramesWithInterferencePartial 	0
scalar ApplicationClusteringImplementations.TemperatureSensorNode5.nic.phy 	nbFramesWithoutInterferencePartial 	0
scalar ApplicationClusteringImplementations.TemperatureSensorNode5.nic.phy 	nbFramesWithInterferenceDropped 	0
scalar ApplicationClusteringImplementations.TemperatureSensorNode5.nic.phy 	nbFramesWithoutInterferenceDropped 	0
scalar ApplicationClusteringImplementations.TemperatureSensorNode6.batteryStats 	nominal 	10800000
attr unit  mW-s
scalar ApplicationClusteringImplementations.TemperatureSensorNode6.batteryStats 	total 	50000
attr unit  mW-s
scalar ApplicationClusteringImplementations.TemperatureSensorNode6.batteryStats 	lifetime 	-1
attr unit  s
scalar ApplicationClusteringImplementations.TemperatureSensorNode6.batteryStats 	"Mean power consumption" 	inf
attr unit  mW
scalar ApplicationClusteringImplementations.TemperatureSensorNode6.nic.mac 	nbTxFrames 	0
scalar ApplicationClusteringImplementations.TemperatureSensorNode6.nic.mac 	nbRxFrames 	0
scalar ApplicationClusteringImplementations.TemperatureSensorNode6.nic.mac 	nbDroppedFrames 	0
scalar ApplicationClusteringImplementations.TemperatureSensorNode6.nic.mac 	nbMissedAcks 	0
scalar ApplicationClusteringImplementations.TemperatureSensorNode6.nic.mac 	nbRecvdAcks 	0
scalar ApplicationClusteringImplementations.TemperatureSensorNode6.nic.mac 	nbTxAcks 	0
scalar ApplicationClusteringImplementations.TemperatureSensorNode6.nic.mac 	nbDuplicates 	0
scalar ApplicationClusteringImplementations.TemperatureSensorNode6.nic.mac 	meanBackoff 	0
scalar ApplicationClusteringImplementations.TemperatureSensorNode6.nic.mac 	nbBackoffs 	0
scalar ApplicationClusteringImplementations.TemperatureSensorNode6.nic.mac 	backoffDurations 	0
scalar ApplicationClusteringImplementations.TemperatureSensorNode6.nic.phy 	nbFramesWithInterference 	0
scalar ApplicationClusteringImplementations.TemperatureSensorNode6.nic.phy 	nbFramesWithoutInterference 	0
scalar ApplicationClusteringImplementations.TemperatureSensorNode6.nic.phy 	nbFramesWithInterferencePartial 	0
scalar ApplicationClusteringImplementations.TemperatureSensorNode6.nic.phy 	nbFramesWithoutInterferencePartial 	0
scalar ApplicationClusteringImplementations.TemperatureSensorNode6.nic.phy 	nbFramesWithInterferenceDropped 	0
scalar ApplicationClusteringImplementations.TemperatureSensorNode6.nic.phy 	nbFramesWithoutInterferenceDropped 	0
scalar ApplicationClusteringImplementations.TemperatureSensorNode7.batteryStats 	nominal 	10800000
attr unit  mW-s
scalar ApplicationClusteringImplementations.TemperatureSensorNode7.batteryStats 	total 	50000
attr unit  mW-s
scalar ApplicationClusteringImplementations.TemperatureSensorNode7.batteryStats 	lifetime 	-1
attr unit  s
scalar ApplicationClusteringImplementations.TemperatureSensorNode7.batteryStats 	"Mean power consumption" 	inf
attr unit  mW
scalar ApplicationClusteringImplementations.TemperatureSensorNode7.nic.mac 	nbTxFrames 	0
scalar ApplicationClusteringImplementations.TemperatureSensorNode7.nic.mac 	nbRxFrames 	0
scalar ApplicationClusteringImplementations.TemperatureSensorNode7.nic.mac 	nbDroppedFrames 	0
scalar ApplicationClusteringImplementations.TemperatureSensorNode7.nic.mac 	nbMissedAcks 	0
scalar ApplicationClusteringImplementations.TemperatureSensorNode7.nic.mac 	nbRecvdAcks 	0
scalar ApplicationClusteringImplementations.TemperatureSensorNode7.nic.mac 	nbTxAcks 	0
scalar ApplicationClusteringImplementations.TemperatureSensorNode7.nic.mac 	nbDuplicates 	0
scalar ApplicationClusteringImplementations.TemperatureSensorNode7.nic.mac 	meanBackoff 	0
scalar ApplicationClusteringImplementations.TemperatureSensorNode7.nic.mac 	nbBackoffs 	0
scalar ApplicationClusteringImplementations.TemperatureSensorNode7.nic.mac 	backoffDurations 	0
scalar ApplicationClusteringImplementations.TemperatureSensorNode7.nic.phy 	nbFramesWithInterference 	0
scalar ApplicationClusteringImplementations.TemperatureSensorNode7.nic.phy 	nbFramesWithoutInterference 	0
scalar ApplicationClusteringImplementations.TemperatureSensorNode7.nic.phy 	nbFramesWithInterferencePartial 	0
scalar ApplicationClusteringImplementations.TemperatureSensorNode7.nic.phy 	nbFramesWithoutInterferencePartial 	0
scalar ApplicationClusteringImplementations.TemperatureSensorNode7.nic.phy 	nbFramesWithInterferenceDropped 	0
scalar ApplicationClusteringImplementations.TemperatureSensorNode7.nic.phy 	nbFramesWithoutInterferenceDropped 	0
scalar ApplicationClusteringImplementations.TemperatureSensorNode8.batteryStats 	nominal 	10800000
attr unit  mW-s
scalar ApplicationClusteringImplementations.TemperatureSensorNode8.batteryStats 	total 	50000
attr unit  mW-s
scalar ApplicationClusteringImplementations.TemperatureSensorNode8.batteryStats 	lifetime 	-1
attr unit  s
scalar ApplicationClusteringImplementations.TemperatureSensorNode8.batteryStats 	"Mean power consumption" 	inf
attr unit  mW
scalar ApplicationClusteringImplementations.TemperatureSensorNode8.nic.mac 	nbTxFrames 	0
scalar ApplicationClusteringImplementations.TemperatureSensorNode8.nic.mac 	nbRxFrames 	0
scalar ApplicationClusteringImplementations.TemperatureSensorNode8.nic.mac 	nbDroppedFrames 	0
scalar ApplicationClusteringImplementations.TemperatureSensorNode8.nic.mac 	nbMissedAcks 	0
scalar ApplicationClusteringImplementations.TemperatureSensorNode8.nic.mac 	nbRecvdAcks 	0
scalar ApplicationClusteringImplementations.TemperatureSensorNode8.nic.mac 	nbTxAcks 	0
scalar ApplicationClusteringImplementations.TemperatureSensorNode8.nic.mac 	nbDuplicates 	0
scalar ApplicationClusteringImplementations.TemperatureSensorNode8.nic.mac 	meanBackoff 	0
scalar ApplicationClusteringImplementations.TemperatureSensorNode8.nic.mac 	nbBackoffs 	0
scalar ApplicationClusteringImplementations.TemperatureSensorNode8.nic.mac 	backoffDurations 	0
scalar ApplicationClusteringImplementations.TemperatureSensorNode8.nic.phy 	nbFramesWithInterference 	0
scalar ApplicationClusteringImplementations.TemperatureSensorNode8.nic.phy 	nbFramesWithoutInterference 	0
scalar ApplicationClusteringImplementations.TemperatureSensorNode8.nic.phy 	nbFramesWithInterferencePartial 	0
scalar ApplicationClusteringImplementations.TemperatureSensorNode8.nic.phy 	nbFramesWithoutInterferencePartial 	0
scalar ApplicationClusteringImplementations.TemperatureSensorNode8.nic.phy 	nbFramesWithInterferenceDropped 	0
scalar ApplicationClusteringImplementations.TemperatureSensorNode8.nic.phy 	nbFramesWithoutInterferenceDropped 	0
scalar ApplicationClusteringImplementations.TemperatureSensorNode9.batteryStats 	nominal 	10800000
attr unit  mW-s
scalar ApplicationClusteringImplementations.TemperatureSensorNode9.batteryStats 	total 	50000
attr unit  mW-s
scalar ApplicationClusteringImplementations.TemperatureSensorNode9.batteryStats 	lifetime 	-1
attr unit  s
scalar ApplicationClusteringImplementations.TemperatureSensorNode9.batteryStats 	"Mean power consumption" 	inf
attr unit  mW
scalar ApplicationClusteringImplementations.TemperatureSensorNode9.nic.mac 	nbTxFrames 	0
scalar ApplicationClusteringImplementations.TemperatureSensorNode9.nic.mac 	nbRxFrames 	0
scalar ApplicationClusteringImplementations.TemperatureSensorNode9.nic.mac 	nbDroppedFrames 	0
scalar ApplicationClusteringImplementations.TemperatureSensorNode9.nic.mac 	nbMissedAcks 	0
scalar ApplicationClusteringImplementations.TemperatureSensorNode9.nic.mac 	nbRecvdAcks 	0
scalar ApplicationClusteringImplementations.TemperatureSensorNode9.nic.mac 	nbTxAcks 	0
scalar ApplicationClusteringImplementations.TemperatureSensorNode9.nic.mac 	nbDuplicates 	0
scalar ApplicationClusteringImplementations.TemperatureSensorNode9.nic.mac 	meanBackoff 	0
scalar ApplicationClusteringImplementations.TemperatureSensorNode9.nic.mac 	nbBackoffs 	0
scalar ApplicationClusteringImplementations.TemperatureSensorNode9.nic.mac 	backoffDurations 	0
scalar ApplicationClusteringImplementations.TemperatureSensorNode9.nic.phy 	nbFramesWithInterference 	0
scalar ApplicationClusteringImplementations.TemperatureSensorNode9.nic.phy 	nbFramesWithoutInterference 	0
scalar ApplicationClusteringImplementations.TemperatureSensorNode9.nic.phy 	nbFramesWithInterferencePartial 	0
scalar ApplicationClusteringImplementations.TemperatureSensorNode9.nic.phy 	nbFramesWithoutInterferencePartial 	0
scalar ApplicationClusteringImplementations.TemperatureSensorNode9.nic.phy 	nbFramesWithInterferenceDropped 	0
scalar ApplicationClusteringImplementations.TemperatureSensorNode9.nic.phy 	nbFramesWithoutInterferenceDropped 	0
scalar ApplicationClusteringImplementations.TemperatureSensorNode10.batteryStats 	nominal 	10800000
attr unit  mW-s
scalar ApplicationClusteringImplementations.TemperatureSensorNode10.batteryStats 	total 	50000
attr unit  mW-s
scalar ApplicationClusteringImplementations.TemperatureSensorNode10.batteryStats 	lifetime 	-1
attr unit  s
scalar ApplicationClusteringImplementations.TemperatureSensorNode10.batteryStats 	"Mean power consumption" 	inf
attr unit  mW
scalar ApplicationClusteringImplementations.TemperatureSensorNode10.nic.mac 	nbTxFrames 	0
scalar ApplicationClusteringImplementations.TemperatureSensorNode10.nic.mac 	nbRxFrames 	0
scalar ApplicationClusteringImplementations.TemperatureSensorNode10.nic.mac 	nbDroppedFrames 	0
scalar ApplicationClusteringImplementations.TemperatureSensorNode10.nic.mac 	nbMissedAcks 	0
scalar ApplicationClusteringImplementations.TemperatureSensorNode10.nic.mac 	nbRecvdAcks 	0
scalar ApplicationClusteringImplementations.TemperatureSensorNode10.nic.mac 	nbTxAcks 	0
scalar ApplicationClusteringImplementations.TemperatureSensorNode10.nic.mac 	nbDuplicates 	0
scalar ApplicationClusteringImplementations.TemperatureSensorNode10.nic.mac 	meanBackoff 	0
scalar ApplicationClusteringImplementations.TemperatureSensorNode10.nic.mac 	nbBackoffs 	0
scalar ApplicationClusteringImplementations.TemperatureSensorNode10.nic.mac 	backoffDurations 	0
scalar ApplicationClusteringImplementations.TemperatureSensorNode10.nic.phy 	nbFramesWithInterference 	0
scalar ApplicationClusteringImplementations.TemperatureSensorNode10.nic.phy 	nbFramesWithoutInterference 	0
scalar ApplicationClusteringImplementations.TemperatureSensorNode10.nic.phy 	nbFramesWithInterferencePartial 	0
scalar ApplicationClusteringImplementations.TemperatureSensorNode10.nic.phy 	nbFramesWithoutInterferencePartial 	0
scalar ApplicationClusteringImplementations.TemperatureSensorNode10.nic.phy 	nbFramesWithInterferenceDropped 	0
scalar ApplicationClusteringImplementations.TemperatureSensorNode10.nic.phy 	nbFramesWithoutInterferenceDropped 	0
scalar ApplicationClusteringImplementations.TemperatureSensorNode11.batteryStats 	nominal 	10800000
attr unit  mW-s
scalar ApplicationClusteringImplementations.TemperatureSensorNode11.batteryStats 	total 	50000
attr unit  mW-s
scalar ApplicationClusteringImplementations.TemperatureSensorNode11.batteryStats 	lifetime 	-1
attr unit  s
scalar ApplicationClusteringImplementations.TemperatureSensorNode11.batteryStats 	"Mean power consumption" 	inf
attr unit  mW
scalar ApplicationClusteringImplementations.TemperatureSensorNode11.nic.mac 	nbTxFrames 	0
scalar ApplicationClusteringImplementations.TemperatureSensorNode11.nic.mac 	nbRxFrames 	0
scalar ApplicationClusteringImplementations.TemperatureSensorNode11.nic.mac 	nbDroppedFrames 	0
scalar ApplicationClusteringImplementations.TemperatureSensorNode11.nic.mac 	nbMissedAcks 	0
scalar ApplicationClusteringImplementations.TemperatureSensorNode11.nic.mac 	nbRecvdAcks 	0
scalar ApplicationClusteringImplementations.TemperatureSensorNode11.nic.mac 	nbTxAcks 	0
scalar ApplicationClusteringImplementations.TemperatureSensorNode11.nic.mac 	nbDuplicates 	0
scalar ApplicationClusteringImplementations.TemperatureSensorNode11.nic.mac 	meanBackoff 	0
scalar ApplicationClusteringImplementations.TemperatureSensorNode11.nic.mac 	nbBackoffs 	0
scalar ApplicationClusteringImplementations.TemperatureSensorNode11.nic.mac 	backoffDurations 	0
scalar ApplicationClusteringImplementations.TemperatureSensorNode11.nic.phy 	nbFramesWithInterference 	0
scalar ApplicationClusteringImplementations.TemperatureSensorNode11.nic.phy 	nbFramesWithoutInterference 	0
scalar ApplicationClusteringImplementations.TemperatureSensorNode11.nic.phy 	nbFramesWithInterferencePartial 	0
scalar ApplicationClusteringImplementations.TemperatureSensorNode11.nic.phy 	nbFramesWithoutInterferencePartial 	0
scalar ApplicationClusteringImplementations.TemperatureSensorNode11.nic.phy 	nbFramesWithInterferenceDropped 	0
scalar ApplicationClusteringImplementations.TemperatureSensorNode11.nic.phy 	nbFramesWithoutInterferenceDropped 	0
scalar ApplicationClusteringImplementations.TemperatureSensorNode12.batteryStats 	nominal 	10800000
attr unit  mW-s
scalar ApplicationClusteringImplementations.TemperatureSensorNode12.batteryStats 	total 	50000
attr unit  mW-s
scalar ApplicationClusteringImplementations.TemperatureSensorNode12.batteryStats 	lifetime 	-1
attr unit  s
scalar ApplicationClusteringImplementations.TemperatureSensorNode12.batteryStats 	"Mean power consumption" 	inf
attr unit  mW
scalar ApplicationClusteringImplementations.TemperatureSensorNode12.nic.mac 	nbTxFrames 	0
scalar ApplicationClusteringImplementations.TemperatureSensorNode12.nic.mac 	nbRxFrames 	0
scalar ApplicationClusteringImplementations.TemperatureSensorNode12.nic.mac 	nbDroppedFrames 	0
scalar ApplicationClusteringImplementations.TemperatureSensorNode12.nic.mac 	nbMissedAcks 	0
scalar ApplicationClusteringImplementations.TemperatureSensorNode12.nic.mac 	nbRecvdAcks 	0
scalar ApplicationClusteringImplementations.TemperatureSensorNode12.nic.mac 	nbTxAcks 	0
scalar ApplicationClusteringImplementations.TemperatureSensorNode12.nic.mac 	nbDuplicates 	0
scalar ApplicationClusteringImplementations.TemperatureSensorNode12.nic.mac 	meanBackoff 	0
scalar ApplicationClusteringImplementations.TemperatureSensorNode12.nic.mac 	nbBackoffs 	0
scalar ApplicationClusteringImplementations.TemperatureSensorNode12.nic.mac 	backoffDurations 	0
scalar ApplicationClusteringImplementations.TemperatureSensorNode12.nic.phy 	nbFramesWithInterference 	0
scalar ApplicationClusteringImplementations.TemperatureSensorNode12.nic.phy 	nbFramesWithoutInterference 	0
scalar ApplicationClusteringImplementations.TemperatureSensorNode12.nic.phy 	nbFramesWithInterferencePartial 	0
scalar ApplicationClusteringImplementations.TemperatureSensorNode12.nic.phy 	nbFramesWithoutInterferencePartial 	0
scalar ApplicationClusteringImplementations.TemperatureSensorNode12.nic.phy 	nbFramesWithInterferenceDropped 	0
scalar ApplicationClusteringImplementations.TemperatureSensorNode12.nic.phy 	nbFramesWithoutInterferenceDropped 	0
scalar ApplicationClusteringImplementations.TemperatureSensorNode13.batteryStats 	nominal 	10800000
attr unit  mW-s
scalar ApplicationClusteringImplementations.TemperatureSensorNode13.batteryStats 	total 	40000
attr unit  mW-s
scalar ApplicationClusteringImplementations.TemperatureSensorNode13.batteryStats 	lifetime 	-1
attr unit  s
scalar ApplicationClusteringImplementations.TemperatureSensorNode13.batteryStats 	"Mean power consumption" 	inf
attr unit  mW
scalar ApplicationClusteringImplementations.TemperatureSensorNode13.nic.mac 	nbTxFrames 	0
scalar ApplicationClusteringImplementations.TemperatureSensorNode13.nic.mac 	nbRxFrames 	0
scalar ApplicationClusteringImplementations.TemperatureSensorNode13.nic.mac 	nbDroppedFrames 	0
scalar ApplicationClusteringImplementations.TemperatureSensorNode13.nic.mac 	nbMissedAcks 	0
scalar ApplicationClusteringImplementations.TemperatureSensorNode13.nic.mac 	nbRecvdAcks 	0
scalar ApplicationClusteringImplementations.TemperatureSensorNode13.nic.mac 	nbTxAcks 	0
scalar ApplicationClusteringImplementations.TemperatureSensorNode13.nic.mac 	nbDuplicates 	0
scalar ApplicationClusteringImplementations.TemperatureSensorNode13.nic.mac 	meanBackoff 	0
scalar ApplicationClusteringImplementations.TemperatureSensorNode13.nic.mac 	nbBackoffs 	0
scalar ApplicationClusteringImplementations.TemperatureSensorNode13.nic.mac 	backoffDurations 	0
scalar ApplicationClusteringImplementations.TemperatureSensorNode13.nic.phy 	nbFramesWithInterference 	0
scalar ApplicationClusteringImplementations.TemperatureSensorNode13.nic.phy 	nbFramesWithoutInterference 	0
scalar ApplicationClusteringImplementations.TemperatureSensorNode13.nic.phy 	nbFramesWithInterferencePartial 	0
scalar ApplicationClusteringImplementations.TemperatureSensorNode13.nic.phy 	nbFramesWithoutInterferencePartial 	0
scalar ApplicationClusteringImplementations.TemperatureSensorNode13.nic.phy 	nbFramesWithInterferenceDropped 	0
scalar ApplicationClusteringImplementations.TemperatureSensorNode13.nic.phy 	nbFramesWithoutInterferenceDropped 	0
scalar ApplicationClusteringImplementations.TemperatureSensorNode14.batteryStats 	nominal 	10800000
attr unit  mW-s
scalar ApplicationClusteringImplementations.TemperatureSensorNode14.batteryStats 	total 	40000
attr unit  mW-s
scalar ApplicationClusteringImplementations.TemperatureSensorNode14.batteryStats 	lifetime 	-1
attr unit  s
scalar ApplicationClusteringImplementations.TemperatureSensorNode14.batteryStats 	"Mean power consumption" 	inf
attr unit  mW
scalar ApplicationClusteringImplementations.TemperatureSensorNode14.nic.mac 	nbTxFrames 	0
scalar ApplicationClusteringImplementations.TemperatureSensorNode14.nic.mac 	nbRxFrames 	0
scalar ApplicationClusteringImplementations.TemperatureSensorNode14.nic.mac 	nbDroppedFrames 	0
scalar ApplicationClusteringImplementations.TemperatureSensorNode14.nic.mac 	nbMissedAcks 	0
scalar ApplicationClusteringImplementations.TemperatureSensorNode14.nic.mac 	nbRecvdAcks 	0
scalar ApplicationClusteringImplementations.TemperatureSensorNode14.nic.mac 	nbTxAcks 	0
scalar ApplicationClusteringImplementations.TemperatureSensorNode14.nic.mac 	nbDuplicates 	0
scalar ApplicationClusteringImplementations.TemperatureSensorNode14.nic.mac 	meanBackoff 	0
scalar ApplicationClusteringImplementations.TemperatureSensorNode14.nic.mac 	nbBackoffs 	0
scalar ApplicationClusteringImplementations.TemperatureSensorNode14.nic.mac 	backoffDurations 	0
scalar ApplicationClusteringImplementations.TemperatureSensorNode14.nic.phy 	nbFramesWithInterference 	0
scalar ApplicationClusteringImplementations.TemperatureSensorNode14.nic.phy 	nbFramesWithoutInterference 	0
scalar ApplicationClusteringImplementations.TemperatureSensorNode14.nic.phy 	nbFramesWithInterferencePartial 	0
scalar ApplicationClusteringImplementations.TemperatureSensorNode14.nic.phy 	nbFramesWithoutInterferencePartial 	0
scalar ApplicationClusteringImplementations.TemperatureSensorNode14.nic.phy 	nbFramesWithInterferenceDropped 	0
scalar ApplicationClusteringImplementations.TemperatureSensorNode14.nic.phy 	nbFramesWithoutInterferenceDropped 	0
scalar ApplicationClusteringImplementations.TemperatureSensorNode15.batteryStats 	nominal 	10800000
attr unit  mW-s
scalar ApplicationClusteringImplementations.TemperatureSensorNode15.batteryStats 	total 	40000
attr unit  mW-s
scalar ApplicationClusteringImplementations.TemperatureSensorNode15.batteryStats 	lifetime 	-1
attr unit  s
scalar ApplicationClusteringImplementations.TemperatureSensorNode15.batteryStats 	"Mean power consumption" 	inf
attr unit  mW
scalar ApplicationClusteringImplementations.TemperatureSensorNode15.nic.mac 	nbTxFrames 	0
scalar ApplicationClusteringImplementations.TemperatureSensorNode15.nic.mac 	nbRxFrames 	0
scalar ApplicationClusteringImplementations.TemperatureSensorNode15.nic.mac 	nbDroppedFrames 	0
scalar ApplicationClusteringImplementations.TemperatureSensorNode15.nic.mac 	nbMissedAcks 	0
scalar ApplicationClusteringImplementations.TemperatureSensorNode15.nic.mac 	nbRecvdAcks 	0
scalar ApplicationClusteringImplementations.TemperatureSensorNode15.nic.mac 	nbTxAcks 	0
scalar ApplicationClusteringImplementations.TemperatureSensorNode15.nic.mac 	nbDuplicates 	0
scalar ApplicationClusteringImplementations.TemperatureSensorNode15.nic.mac 	meanBackoff 	0
scalar ApplicationClusteringImplementations.TemperatureSensorNode15.nic.mac 	nbBackoffs 	0
scalar ApplicationClusteringImplementations.TemperatureSensorNode15.nic.mac 	backoffDurations 	0
scalar ApplicationClusteringImplementations.TemperatureSensorNode15.nic.phy 	nbFramesWithInterference 	0
scalar ApplicationClusteringImplementations.TemperatureSensorNode15.nic.phy 	nbFramesWithoutInterference 	0
scalar ApplicationClusteringImplementations.TemperatureSensorNode15.nic.phy 	nbFramesWithInterferencePartial 	0
scalar ApplicationClusteringImplementations.TemperatureSensorNode15.nic.phy 	nbFramesWithoutInterferencePartial 	0
scalar ApplicationClusteringImplementations.TemperatureSensorNode15.nic.phy 	nbFramesWithInterferenceDropped 	0
scalar ApplicationClusteringImplementations.TemperatureSensorNode15.nic.phy 	nbFramesWithoutInterferenceDropped 	0
scalar ApplicationClusteringImplementations.TemperatureSensorNode16.batteryStats 	nominal 	10800000
attr unit  mW-s
scalar ApplicationClusteringImplementations.TemperatureSensorNode16.batteryStats 	total 	40000
attr unit  mW-s
scalar ApplicationClusteringImplementations.TemperatureSensorNode16.batteryStats 	lifetime 	-1
attr unit  s
scalar ApplicationClusteringImplementations.TemperatureSensorNode16.batteryStats 	"Mean power consumption" 	inf
attr unit  mW
scalar ApplicationClusteringImplementations.TemperatureSensorNode16.nic.mac 	nbTxFrames 	0
scalar ApplicationClusteringImplementations.TemperatureSensorNode16.nic.mac 	nbRxFrames 	0
scalar ApplicationClusteringImplementations.TemperatureSensorNode16.nic.mac 	nbDroppedFrames 	0
scalar ApplicationClusteringImplementations.TemperatureSensorNode16.nic.mac 	nbMissedAcks 	0
scalar ApplicationClusteringImplementations.TemperatureSensorNode16.nic.mac 	nbRecvdAcks 	0
scalar ApplicationClusteringImplementations.TemperatureSensorNode16.nic.mac 	nbTxAcks 	0
scalar ApplicationClusteringImplementations.TemperatureSensorNode16.nic.mac 	nbDuplicates 	0
scalar ApplicationClusteringImplementations.TemperatureSensorNode16.nic.mac 	meanBackoff 	0
scalar ApplicationClusteringImplementations.TemperatureSensorNode16.nic.mac 	nbBackoffs 	0
scalar ApplicationClusteringImplementations.TemperatureSensorNode16.nic.mac 	backoffDurations 	0
scalar ApplicationClusteringImplementations.TemperatureSensorNode16.nic.phy 	nbFramesWithInterference 	0
scalar ApplicationClusteringImplementations.TemperatureSensorNode16.nic.phy 	nbFramesWithoutInterference 	0
scalar ApplicationClusteringImplementations.TemperatureSensorNode16.nic.phy 	nbFramesWithInterferencePartial 	0
scalar ApplicationClusteringImplementations.TemperatureSensorNode16.nic.phy 	nbFramesWithoutInterferencePartial 	0
scalar ApplicationClusteringImplementations.TemperatureSensorNode16.nic.phy 	nbFramesWithInterferenceDropped 	0
scalar ApplicationClusteringImplementations.TemperatureSensorNode16.nic.phy 	nbFramesWithoutInterferenceDropped 	0
scalar ApplicationClusteringImplementations.TemperatureSensorNode17.batteryStats 	nominal 	10800000
attr unit  mW-s
scalar ApplicationClusteringImplementations.TemperatureSensorNode17.batteryStats 	total 	40000
attr unit  mW-s
scalar ApplicationClusteringImplementations.TemperatureSensorNode17.batteryStats 	lifetime 	-1
attr unit  s
scalar ApplicationClusteringImplementations.TemperatureSensorNode17.batteryStats 	"Mean power consumption" 	inf
attr unit  mW
scalar ApplicationClusteringImplementations.TemperatureSensorNode17.nic.mac 	nbTxFrames 	0
scalar ApplicationClusteringImplementations.TemperatureSensorNode17.nic.mac 	nbRxFrames 	0
scalar ApplicationClusteringImplementations.TemperatureSensorNode17.nic.mac 	nbDroppedFrames 	0
scalar ApplicationClusteringImplementations.TemperatureSensorNode17.nic.mac 	nbMissedAcks 	0
scalar ApplicationClusteringImplementations.TemperatureSensorNode17.nic.mac 	nbRecvdAcks 	0
scalar ApplicationClusteringImplementations.TemperatureSensorNode17.nic.mac 	nbTxAcks 	0
scalar ApplicationClusteringImplementations.TemperatureSensorNode17.nic.mac 	nbDuplicates 	0
scalar ApplicationClusteringImplementations.TemperatureSensorNode17.nic.mac 	meanBackoff 	0
scalar ApplicationClusteringImplementations.TemperatureSensorNode17.nic.mac 	nbBackoffs 	0
scalar ApplicationClusteringImplementations.TemperatureSensorNode17.nic.mac 	backoffDurations 	0
scalar ApplicationClusteringImplementations.TemperatureSensorNode17.nic.phy 	nbFramesWithInterference 	0
scalar ApplicationClusteringImplementations.TemperatureSensorNode17.nic.phy 	nbFramesWithoutInterference 	0
scalar ApplicationClusteringImplementations.TemperatureSensorNode17.nic.phy 	nbFramesWithInterferencePartial 	0
scalar ApplicationClusteringImplementations.TemperatureSensorNode17.nic.phy 	nbFramesWithoutInterferencePartial 	0
scalar ApplicationClusteringImplementations.TemperatureSensorNode17.nic.phy 	nbFramesWithInterferenceDropped 	0
scalar ApplicationClusteringImplementations.TemperatureSensorNode17.nic.phy 	nbFramesWithoutInterferenceDropped 	0
scalar ApplicationClusteringImplementations.TemperatureSensorNode18.batteryStats 	nominal 	10800000
attr unit  mW-s
scalar ApplicationClusteringImplementations.TemperatureSensorNode18.batteryStats 	total 	40000
attr unit  mW-s
scalar ApplicationClusteringImplementations.TemperatureSensorNode18.batteryStats 	lifetime 	-1
attr unit  s
scalar ApplicationClusteringImplementations.TemperatureSensorNode18.batteryStats 	"Mean power consumption" 	inf
attr unit  mW
scalar ApplicationClusteringImplementations.TemperatureSensorNode18.nic.mac 	nbTxFrames 	0
scalar ApplicationClusteringImplementations.TemperatureSensorNode18.nic.mac 	nbRxFrames 	0
scalar ApplicationClusteringImplementations.TemperatureSensorNode18.nic.mac 	nbDroppedFrames 	0
scalar ApplicationClusteringImplementations.TemperatureSensorNode18.nic.mac 	nbMissedAcks 	0
scalar ApplicationClusteringImplementations.TemperatureSensorNode18.nic.mac 	nbRecvdAcks 	0
scalar ApplicationClusteringImplementations.TemperatureSensorNode18.nic.mac 	nbTxAcks 	0
scalar ApplicationClusteringImplementations.TemperatureSensorNode18.nic.mac 	nbDuplicates 	0
scalar ApplicationClusteringImplementations.TemperatureSensorNode18.nic.mac 	meanBackoff 	0
scalar ApplicationClusteringImplementations.TemperatureSensorNode18.nic.mac 	nbBackoffs 	0
scalar ApplicationClusteringImplementations.TemperatureSensorNode18.nic.mac 	backoffDurations 	0
scalar ApplicationClusteringImplementations.TemperatureSensorNode18.nic.phy 	nbFramesWithInterference 	0
scalar ApplicationClusteringImplementations.TemperatureSensorNode18.nic.phy 	nbFramesWithoutInterference 	0
scalar ApplicationClusteringImplementations.TemperatureSensorNode18.nic.phy 	nbFramesWithInterferencePartial 	0
scalar ApplicationClusteringImplementations.TemperatureSensorNode18.nic.phy 	nbFramesWithoutInterferencePartial 	0
scalar ApplicationClusteringImplementations.TemperatureSensorNode18.nic.phy 	nbFramesWithInterferenceDropped 	0
scalar ApplicationClusteringImplementations.TemperatureSensorNode18.nic.phy 	nbFramesWithoutInterferenceDropped 	0
scalar ApplicationClusteringImplementations.TemperatureSensorNode19.batteryStats 	nominal 	10800000
attr unit  mW-s
scalar ApplicationClusteringImplementations.TemperatureSensorNode19.batteryStats 	total 	40000
attr unit  mW-s
scalar ApplicationClusteringImplementations.TemperatureSensorNode19.batteryStats 	lifetime 	-1
attr unit  s
scalar ApplicationClusteringImplementations.TemperatureSensorNode19.batteryStats 	"Mean power consumption" 	inf
attr unit  mW
scalar ApplicationClusteringImplementations.TemperatureSensorNode19.nic.mac 	nbTxFrames 	0
scalar ApplicationClusteringImplementations.TemperatureSensorNode19.nic.mac 	nbRxFrames 	0
scalar ApplicationClusteringImplementations.TemperatureSensorNode19.nic.mac 	nbDroppedFrames 	0
scalar ApplicationClusteringImplementations.TemperatureSensorNode19.nic.mac 	nbMissedAcks 	0
scalar ApplicationClusteringImplementations.TemperatureSensorNode19.nic.mac 	nbRecvdAcks 	0
scalar ApplicationClusteringImplementations.TemperatureSensorNode19.nic.mac 	nbTxAcks 	0
scalar ApplicationClusteringImplementations.TemperatureSensorNode19.nic.mac 	nbDuplicates 	0
scalar ApplicationClusteringImplementations.TemperatureSensorNode19.nic.mac 	meanBackoff 	0
scalar ApplicationClusteringImplementations.TemperatureSensorNode19.nic.mac 	nbBackoffs 	0
scalar ApplicationClusteringImplementations.TemperatureSensorNode19.nic.mac 	backoffDurations 	0
scalar ApplicationClusteringImplementations.TemperatureSensorNode19.nic.phy 	nbFramesWithInterference 	0
scalar ApplicationClusteringImplementations.TemperatureSensorNode19.nic.phy 	nbFramesWithoutInterference 	0
scalar ApplicationClusteringImplementations.TemperatureSensorNode19.nic.phy 	nbFramesWithInterferencePartial 	0
scalar ApplicationClusteringImplementations.TemperatureSensorNode19.nic.phy 	nbFramesWithoutInterferencePartial 	0
scalar ApplicationClusteringImplementations.TemperatureSensorNode19.nic.phy 	nbFramesWithInterferenceDropped 	0
scalar ApplicationClusteringImplementations.TemperatureSensorNode19.nic.phy 	nbFramesWithoutInterferenceDropped 	0
scalar ApplicationClusteringImplementations.TemperatureSensorNode20.batteryStats 	nominal 	10800000
attr unit  mW-s
scalar ApplicationClusteringImplementations.TemperatureSensorNode20.batteryStats 	total 	40000
attr unit  mW-s
scalar ApplicationClusteringImplementations.TemperatureSensorNode20.batteryStats 	lifetime 	-1
attr unit  s
scalar ApplicationClusteringImplementations.TemperatureSensorNode20.batteryStats 	"Mean power consumption" 	inf
attr unit  mW
scalar ApplicationClusteringImplementations.TemperatureSensorNode20.nic.mac 	nbTxFrames 	0
scalar ApplicationClusteringImplementations.TemperatureSensorNode20.nic.mac 	nbRxFrames 	0
scalar ApplicationClusteringImplementations.TemperatureSensorNode20.nic.mac 	nbDroppedFrames 	0
scalar ApplicationClusteringImplementations.TemperatureSensorNode20.nic.mac 	nbMissedAcks 	0
scalar ApplicationClusteringImplementations.TemperatureSensorNode20.nic.mac 	nbRecvdAcks 	0
scalar ApplicationClusteringImplementations.TemperatureSensorNode20.nic.mac 	nbTxAcks 	0
scalar ApplicationClusteringImplementations.TemperatureSensorNode20.nic.mac 	nbDuplicates 	0
scalar ApplicationClusteringImplementations.TemperatureSensorNode20.nic.mac 	meanBackoff 	0
scalar ApplicationClusteringImplementations.TemperatureSensorNode20.nic.mac 	nbBackoffs 	0
scalar ApplicationClusteringImplementations.TemperatureSensorNode20.nic.mac 	backoffDurations 	0
scalar ApplicationClusteringImplementations.TemperatureSensorNode20.nic.phy 	nbFramesWithInterference 	0
scalar ApplicationClusteringImplementations.TemperatureSensorNode20.nic.phy 	nbFramesWithoutInterference 	0
scalar ApplicationClusteringImplementations.TemperatureSensorNode20.nic.phy 	nbFramesWithInterferencePartial 	0
scalar ApplicationClusteringImplementations.TemperatureSensorNode20.nic.phy 	nbFramesWithoutInterferencePartial 	0
scalar ApplicationClusteringImplementations.TemperatureSensorNode20.nic.phy 	nbFramesWithInterferenceDropped 	0
scalar ApplicationClusteringImplementations.TemperatureSensorNode20.nic.phy 	nbFramesWithoutInterferenceDropped 	0
scalar ApplicationClusteringImplementations.TemperatureSensorNode21.batteryStats 	nominal 	10800000
attr unit  mW-s
scalar ApplicationClusteringImplementations.TemperatureSensorNode21.batteryStats 	total 	40000
attr unit  mW-s
scalar ApplicationClusteringImplementations.TemperatureSensorNode21.batteryStats 	lifetime 	-1
attr unit  s
scalar ApplicationClusteringImplementations.TemperatureSensorNode21.batteryStats 	"Mean power consumption" 	inf
attr unit  mW
scalar ApplicationClusteringImplementations.TemperatureSensorNode21.nic.mac 	nbTxFrames 	0
scalar ApplicationClusteringImplementations.TemperatureSensorNode21.nic.mac 	nbRxFrames 	0
scalar ApplicationClusteringImplementations.TemperatureSensorNode21.nic.mac 	nbDroppedFrames 	0
scalar ApplicationClusteringImplementations.TemperatureSensorNode21.nic.mac 	nbMissedAcks 	0
scalar ApplicationClusteringImplementations.TemperatureSensorNode21.nic.mac 	nbRecvdAcks 	0
scalar ApplicationClusteringImplementations.TemperatureSensorNode21.nic.mac 	nbTxAcks 	0
scalar ApplicationClusteringImplementations.TemperatureSensorNode21.nic.mac 	nbDuplicates 	0
scalar ApplicationClusteringImplementations.TemperatureSensorNode21.nic.mac 	meanBackoff 	0
scalar ApplicationClusteringImplementations.TemperatureSensorNode21.nic.mac 	nbBackoffs 	0
scalar ApplicationClusteringImplementations.TemperatureSensorNode21.nic.mac 	backoffDurations 	0
scalar ApplicationClusteringImplementations.TemperatureSensorNode21.nic.phy 	nbFramesWithInterference 	0
scalar ApplicationClusteringImplementations.TemperatureSensorNode21.nic.phy 	nbFramesWithoutInterference 	0
scalar ApplicationClusteringImplementations.TemperatureSensorNode21.nic.phy 	nbFramesWithInterferencePartial 	0
scalar ApplicationClusteringImplementations.TemperatureSensorNode21.nic.phy 	nbFramesWithoutInterferencePartial 	0
scalar ApplicationClusteringImplementations.TemperatureSensorNode21.nic.phy 	nbFramesWithInterferenceDropped 	0
scalar ApplicationClusteringImplementations.TemperatureSensorNode21.nic.phy 	nbFramesWithoutInterferenceDropped 	0
scalar ApplicationClusteringImplementations.TemperatureSensorNode22.batteryStats 	nominal 	10800000
attr unit  mW-s
scalar ApplicationClusteringImplementations.TemperatureSensorNode22.batteryStats 	total 	40000
attr unit  mW-s
scalar ApplicationClusteringImplementations.TemperatureSensorNode22.batteryStats 	lifetime 	-1
attr unit  s
scalar ApplicationClusteringImplementations.TemperatureSensorNode22.batteryStats 	"Mean power consumption" 	inf
attr unit  mW
scalar ApplicationClusteringImplementations.TemperatureSensorNode22.nic.mac 	nbTxFrames 	0
scalar ApplicationClusteringImplementations.TemperatureSensorNode22.nic.mac 	nbRxFrames 	0
scalar ApplicationClusteringImplementations.TemperatureSensorNode22.nic.mac 	nbDroppedFrames 	0
scalar ApplicationClusteringImplementations.TemperatureSensorNode22.nic.mac 	nbMissedAcks 	0
scalar ApplicationClusteringImplementations.TemperatureSensorNode22.nic.mac 	nbRecvdAcks 	0
scalar ApplicationClusteringImplementations.TemperatureSensorNode22.nic.mac 	nbTxAcks 	0
scalar ApplicationClusteringImplementations.TemperatureSensorNode22.nic.mac 	nbDuplicates 	0
scalar ApplicationClusteringImplementations.TemperatureSensorNode22.nic.mac 	meanBackoff 	0
scalar ApplicationClusteringImplementations.TemperatureSensorNode22.nic.mac 	nbBackoffs 	0
scalar ApplicationClusteringImplementations.TemperatureSensorNode22.nic.mac 	backoffDurations 	0
scalar ApplicationClusteringImplementations.TemperatureSensorNode22.nic.phy 	nbFramesWithInterference 	0
scalar ApplicationClusteringImplementations.TemperatureSensorNode22.nic.phy 	nbFramesWithoutInterference 	0
scalar ApplicationClusteringImplementations.TemperatureSensorNode22.nic.phy 	nbFramesWithInterferencePartial 	0
scalar ApplicationClusteringImplementations.TemperatureSensorNode22.nic.phy 	nbFramesWithoutInterferencePartial 	0
scalar ApplicationClusteringImplementations.TemperatureSensorNode22.nic.phy 	nbFramesWithInterferenceDropped 	0
scalar ApplicationClusteringImplementations.TemperatureSensorNode22.nic.phy 	nbFramesWithoutInterferenceDropped 	0
scalar ApplicationClusteringImplementations.TemperatureSensorNode23.batteryStats 	nominal 	10800000
attr unit  mW-s
scalar ApplicationClusteringImplementations.TemperatureSensorNode23.batteryStats 	total 	40000
attr unit  mW-s
scalar ApplicationClusteringImplementations.TemperatureSensorNode23.batteryStats 	lifetime 	-1
attr unit  s
scalar ApplicationClusteringImplementations.TemperatureSensorNode23.batteryStats 	"Mean power consumption" 	inf
attr unit  mW
scalar ApplicationClusteringImplementations.TemperatureSensorNode23.nic.mac 	nbTxFrames 	0
scalar ApplicationClusteringImplementations.TemperatureSensorNode23.nic.mac 	nbRxFrames 	0
scalar ApplicationClusteringImplementations.TemperatureSensorNode23.nic.mac 	nbDroppedFrames 	0
scalar ApplicationClusteringImplementations.TemperatureSensorNode23.nic.mac 	nbMissedAcks 	0
scalar ApplicationClusteringImplementations.TemperatureSensorNode23.nic.mac 	nbRecvdAcks 	0
scalar ApplicationClusteringImplementations.TemperatureSensorNode23.nic.mac 	nbTxAcks 	0
scalar ApplicationClusteringImplementations.TemperatureSensorNode23.nic.mac 	nbDuplicates 	0
scalar ApplicationClusteringImplementations.TemperatureSensorNode23.nic.mac 	meanBackoff 	0
scalar ApplicationClusteringImplementations.TemperatureSensorNode23.nic.mac 	nbBackoffs 	0
scalar ApplicationClusteringImplementations.TemperatureSensorNode23.nic.mac 	backoffDurations 	0
scalar ApplicationClusteringImplementations.TemperatureSensorNode23.nic.phy 	nbFramesWithInterference 	0
scalar ApplicationClusteringImplementations.TemperatureSensorNode23.nic.phy 	nbFramesWithoutInterference 	0
scalar ApplicationClusteringImplementations.TemperatureSensorNode23.nic.phy 	nbFramesWithInterferencePartial 	0
scalar ApplicationClusteringImplementations.TemperatureSensorNode23.nic.phy 	nbFramesWithoutInterferencePartial 	0
scalar ApplicationClusteringImplementations.TemperatureSensorNode23.nic.phy 	nbFramesWithInterferenceDropped 	0
scalar ApplicationClusteringImplementations.TemperatureSensorNode23.nic.phy 	nbFramesWithoutInterferenceDropped 	0
scalar ApplicationClusteringImplementations.TemperatureSensorNode24.batteryStats 	nominal 	10800000
attr unit  mW-s
scalar ApplicationClusteringImplementations.TemperatureSensorNode24.batteryStats 	total 	40000
attr unit  mW-s
scalar ApplicationClusteringImplementations.TemperatureSensorNode24.batteryStats 	lifetime 	-1
attr unit  s
scalar ApplicationClusteringImplementations.TemperatureSensorNode24.batteryStats 	"Mean power consumption" 	inf
attr unit  mW
scalar ApplicationClusteringImplementations.TemperatureSensorNode24.nic.mac 	nbTxFrames 	0
scalar ApplicationClusteringImplementations.TemperatureSensorNode24.nic.mac 	nbRxFrames 	0
scalar ApplicationClusteringImplementations.TemperatureSensorNode24.nic.mac 	nbDroppedFrames 	0
scalar ApplicationClusteringImplementations.TemperatureSensorNode24.nic.mac 	nbMissedAcks 	0
scalar ApplicationClusteringImplementations.TemperatureSensorNode24.nic.mac 	nbRecvdAcks 	0
scalar ApplicationClusteringImplementations.TemperatureSensorNode24.nic.mac 	nbTxAcks 	0
scalar ApplicationClusteringImplementations.TemperatureSensorNode24.nic.mac 	nbDuplicates 	0
scalar ApplicationClusteringImplementations.TemperatureSensorNode24.nic.mac 	meanBackoff 	0
scalar ApplicationClusteringImplementations.TemperatureSensorNode24.nic.mac 	nbBackoffs 	0
scalar ApplicationClusteringImplementations.TemperatureSensorNode24.nic.mac 	backoffDurations 	0
scalar ApplicationClusteringImplementations.TemperatureSensorNode24.nic.phy 	nbFramesWithInterference 	0
scalar ApplicationClusteringImplementations.TemperatureSensorNode24.nic.phy 	nbFramesWithoutInterference 	0
scalar ApplicationClusteringImplementations.TemperatureSensorNode24.nic.phy 	nbFramesWithInterferencePartial 	0
scalar ApplicationClusteringImplementations.TemperatureSensorNode24.nic.phy 	nbFramesWithoutInterferencePartial 	0
scalar ApplicationClusteringImplementations.TemperatureSensorNode24.nic.phy 	nbFramesWithInterferenceDropped 	0
scalar ApplicationClusteringImplementations.TemperatureSensorNode24.nic.phy 	nbFramesWithoutInterferenceDropped 	0
scalar ApplicationClusteringImplementations.TemperatureSensorNode25.batteryStats 	nominal 	10800000
attr unit  mW-s
scalar ApplicationClusteringImplementations.TemperatureSensorNode25.batteryStats 	total 	40000
attr unit  mW-s
scalar ApplicationClusteringImplementations.TemperatureSensorNode25.batteryStats 	lifetime 	-1
attr unit  s
scalar ApplicationClusteringImplementations.TemperatureSensorNode25.batteryStats 	"Mean power consumption" 	inf
attr unit  mW
scalar ApplicationClusteringImplementations.TemperatureSensorNode25.nic.mac 	nbTxFrames 	0
scalar ApplicationClusteringImplementations.TemperatureSensorNode25.nic.mac 	nbRxFrames 	0
scalar ApplicationClusteringImplementations.TemperatureSensorNode25.nic.mac 	nbDroppedFrames 	0
scalar ApplicationClusteringImplementations.TemperatureSensorNode25.nic.mac 	nbMissedAcks 	0
scalar ApplicationClusteringImplementations.TemperatureSensorNode25.nic.mac 	nbRecvdAcks 	0
scalar ApplicationClusteringImplementations.TemperatureSensorNode25.nic.mac 	nbTxAcks 	0
scalar ApplicationClusteringImplementations.TemperatureSensorNode25.nic.mac 	nbDuplicates 	0
scalar ApplicationClusteringImplementations.TemperatureSensorNode25.nic.mac 	meanBackoff 	0
scalar ApplicationClusteringImplementations.TemperatureSensorNode25.nic.mac 	nbBackoffs 	0
scalar ApplicationClusteringImplementations.TemperatureSensorNode25.nic.mac 	backoffDurations 	0
scalar ApplicationClusteringImplementations.TemperatureSensorNode25.nic.phy 	nbFramesWithInterference 	0
scalar ApplicationClusteringImplementations.TemperatureSensorNode25.nic.phy 	nbFramesWithoutInterference 	0
scalar ApplicationClusteringImplementations.TemperatureSensorNode25.nic.phy 	nbFramesWithInterferencePartial 	0
scalar ApplicationClusteringImplementations.TemperatureSensorNode25.nic.phy 	nbFramesWithoutInterferencePartial 	0
scalar ApplicationClusteringImplementations.TemperatureSensorNode25.nic.phy 	nbFramesWithInterferenceDropped 	0
scalar ApplicationClusteringImplementations.TemperatureSensorNode25.nic.phy 	nbFramesWithoutInterferenceDropped 	0
scalar ApplicationClusteringImplementations.TemperatureSensorNode26.batteryStats 	nominal 	10800000
attr unit  mW-s
scalar ApplicationClusteringImplementations.TemperatureSensorNode26.batteryStats 	total 	40000
attr unit  mW-s
scalar ApplicationClusteringImplementations.TemperatureSensorNode26.batteryStats 	lifetime 	-1
attr unit  s
scalar ApplicationClusteringImplementations.TemperatureSensorNode26.batteryStats 	"Mean power consumption" 	inf
attr unit  mW
scalar ApplicationClusteringImplementations.TemperatureSensorNode26.nic.mac 	nbTxFrames 	0
scalar ApplicationClusteringImplementations.TemperatureSensorNode26.nic.mac 	nbRxFrames 	0
scalar ApplicationClusteringImplementations.TemperatureSensorNode26.nic.mac 	nbDroppedFrames 	0
scalar ApplicationClusteringImplementations.TemperatureSensorNode26.nic.mac 	nbMissedAcks 	0
scalar ApplicationClusteringImplementations.TemperatureSensorNode26.nic.mac 	nbRecvdAcks 	0
scalar ApplicationClusteringImplementations.TemperatureSensorNode26.nic.mac 	nbTxAcks 	0
scalar ApplicationClusteringImplementations.TemperatureSensorNode26.nic.mac 	nbDuplicates 	0
scalar ApplicationClusteringImplementations.TemperatureSensorNode26.nic.mac 	meanBackoff 	0
scalar ApplicationClusteringImplementations.TemperatureSensorNode26.nic.mac 	nbBackoffs 	0
scalar ApplicationClusteringImplementations.TemperatureSensorNode26.nic.mac 	backoffDurations 	0
scalar ApplicationClusteringImplementations.TemperatureSensorNode26.nic.phy 	nbFramesWithInterference 	0
scalar ApplicationClusteringImplementations.TemperatureSensorNode26.nic.phy 	nbFramesWithoutInterference 	0
scalar ApplicationClusteringImplementations.TemperatureSensorNode26.nic.phy 	nbFramesWithInterferencePartial 	0
scalar ApplicationClusteringImplementations.TemperatureSensorNode26.nic.phy 	nbFramesWithoutInterferencePartial 	0
scalar ApplicationClusteringImplementations.TemperatureSensorNode26.nic.phy 	nbFramesWithInterferenceDropped 	0
scalar ApplicationClusteringImplementations.TemperatureSensorNode26.nic.phy 	nbFramesWithoutInterferenceDropped 	0
scalar ApplicationClusteringImplementations.TemperatureSensorNode27.batteryStats 	nominal 	10800000
attr unit  mW-s
scalar ApplicationClusteringImplementations.TemperatureSensorNode27.batteryStats 	total 	40000
attr unit  mW-s
scalar ApplicationClusteringImplementations.TemperatureSensorNode27.batteryStats 	lifetime 	-1
attr unit  s
scalar ApplicationClusteringImplementations.TemperatureSensorNode27.batteryStats 	"Mean power consumption" 	inf
attr unit  mW
scalar ApplicationClusteringImplementations.TemperatureSensorNode27.nic.mac 	nbTxFrames 	0
scalar ApplicationClusteringImplementations.TemperatureSensorNode27.nic.mac 	nbRxFrames 	0
scalar ApplicationClusteringImplementations.TemperatureSensorNode27.nic.mac 	nbDroppedFrames 	0
scalar ApplicationClusteringImplementations.TemperatureSensorNode27.nic.mac 	nbMissedAcks 	0
scalar ApplicationClusteringImplementations.TemperatureSensorNode27.nic.mac 	nbRecvdAcks 	0
scalar ApplicationClusteringImplementations.TemperatureSensorNode27.nic.mac 	nbTxAcks 	0
scalar ApplicationClusteringImplementations.TemperatureSensorNode27.nic.mac 	nbDuplicates 	0
scalar ApplicationClusteringImplementations.TemperatureSensorNode27.nic.mac 	meanBackoff 	0
scalar ApplicationClusteringImplementations.TemperatureSensorNode27.nic.mac 	nbBackoffs 	0
scalar ApplicationClusteringImplementations.TemperatureSensorNode27.nic.mac 	backoffDurations 	0
scalar ApplicationClusteringImplementations.TemperatureSensorNode27.nic.phy 	nbFramesWithInterference 	0
scalar ApplicationClusteringImplementations.TemperatureSensorNode27.nic.phy 	nbFramesWithoutInterference 	0
scalar ApplicationClusteringImplementations.TemperatureSensorNode27.nic.phy 	nbFramesWithInterferencePartial 	0
scalar ApplicationClusteringImplementations.TemperatureSensorNode27.nic.phy 	nbFramesWithoutInterferencePartial 	0
scalar ApplicationClusteringImplementations.TemperatureSensorNode27.nic.phy 	nbFramesWithInterferenceDropped 	0
scalar ApplicationClusteringImplementations.TemperatureSensorNode27.nic.phy 	nbFramesWithoutInterferenceDropped 	0
scalar ApplicationClusteringImplementations.TemperatureSensorNode28.batteryStats 	nominal 	10800000
attr unit  mW-s
scalar ApplicationClusteringImplementations.TemperatureSensorNode28.batteryStats 	total 	40000
attr unit  mW-s
scalar ApplicationClusteringImplementations.TemperatureSensorNode28.batteryStats 	lifetime 	-1
attr unit  s
scalar ApplicationClusteringImplementations.TemperatureSensorNode28.batteryStats 	"Mean power consumption" 	inf
attr unit  mW
scalar ApplicationClusteringImplementations.TemperatureSensorNode28.nic.mac 	nbTxFrames 	0
scalar ApplicationClusteringImplementations.TemperatureSensorNode28.nic.mac 	nbRxFrames 	0
scalar ApplicationClusteringImplementations.TemperatureSensorNode28.nic.mac 	nbDroppedFrames 	0
scalar ApplicationClusteringImplementations.TemperatureSensorNode28.nic.mac 	nbMissedAcks 	0
scalar ApplicationClusteringImplementations.TemperatureSensorNode28.nic.mac 	nbRecvdAcks 	0
scalar ApplicationClusteringImplementations.TemperatureSensorNode28.nic.mac 	nbTxAcks 	0
scalar ApplicationClusteringImplementations.TemperatureSensorNode28.nic.mac 	nbDuplicates 	0
scalar ApplicationClusteringImplementations.TemperatureSensorNode28.nic.mac 	meanBackoff 	0
scalar ApplicationClusteringImplementations.TemperatureSensorNode28.nic.mac 	nbBackoffs 	0
scalar ApplicationClusteringImplementations.TemperatureSensorNode28.nic.mac 	backoffDurations 	0
scalar ApplicationClusteringImplementations.TemperatureSensorNode28.nic.phy 	nbFramesWithInterference 	0
scalar ApplicationClusteringImplementations.TemperatureSensorNode28.nic.phy 	nbFramesWithoutInterference 	0
scalar ApplicationClusteringImplementations.TemperatureSensorNode28.nic.phy 	nbFramesWithInterferencePartial 	0
scalar ApplicationClusteringImplementations.TemperatureSensorNode28.nic.phy 	nbFramesWithoutInterferencePartial 	0
scalar ApplicationClusteringImplementations.TemperatureSensorNode28.nic.phy 	nbFramesWithInterferenceDropped 	0
scalar ApplicationClusteringImplementations.TemperatureSensorNode28.nic.phy 	nbFramesWithoutInterferenceDropped 	0
scalar ApplicationClusteringImplementations.TemperatureSensorNode29.batteryStats 	nominal 	10800000
attr unit  mW-s
scalar ApplicationClusteringImplementations.TemperatureSensorNode29.batteryStats 	total 	40000
attr unit  mW-s
scalar ApplicationClusteringImplementations.TemperatureSensorNode29.batteryStats 	lifetime 	-1
attr unit  s
scalar ApplicationClusteringImplementations.TemperatureSensorNode29.batteryStats 	"Mean power consumption" 	inf
attr unit  mW
scalar ApplicationClusteringImplementations.TemperatureSensorNode29.nic.mac 	nbTxFrames 	0
scalar ApplicationClusteringImplementations.TemperatureSensorNode29.nic.mac 	nbRxFrames 	0
scalar ApplicationClusteringImplementations.TemperatureSensorNode29.nic.mac 	nbDroppedFrames 	0
scalar ApplicationClusteringImplementations.TemperatureSensorNode29.nic.mac 	nbMissedAcks 	0
scalar ApplicationClusteringImplementations.TemperatureSensorNode29.nic.mac 	nbRecvdAcks 	0
scalar ApplicationClusteringImplementations.TemperatureSensorNode29.nic.mac 	nbTxAcks 	0
scalar ApplicationClusteringImplementations.TemperatureSensorNode29.nic.mac 	nbDuplicates 	0
scalar ApplicationClusteringImplementations.TemperatureSensorNode29.nic.mac 	meanBackoff 	0
scalar ApplicationClusteringImplementations.TemperatureSensorNode29.nic.mac 	nbBackoffs 	0
scalar ApplicationClusteringImplementations.TemperatureSensorNode29.nic.mac 	backoffDurations 	0
scalar ApplicationClusteringImplementations.TemperatureSensorNode29.nic.phy 	nbFramesWithInterference 	0
scalar ApplicationClusteringImplementations.TemperatureSensorNode29.nic.phy 	nbFramesWithoutInterference 	0
scalar ApplicationClusteringImplementations.TemperatureSensorNode29.nic.phy 	nbFramesWithInterferencePartial 	0
scalar ApplicationClusteringImplementations.TemperatureSensorNode29.nic.phy 	nbFramesWithoutInterferencePartial 	0
scalar ApplicationClusteringImplementations.TemperatureSensorNode29.nic.phy 	nbFramesWithInterferenceDropped 	0
scalar ApplicationClusteringImplementations.TemperatureSensorNode29.nic.phy 	nbFramesWithoutInterferenceDropped 	0
scalar ApplicationClusteringImplementations.TemperatureSensorNode30.batteryStats 	nominal 	10800000
attr unit  mW-s
scalar ApplicationClusteringImplementations.TemperatureSensorNode30.batteryStats 	total 	40000
attr unit  mW-s
scalar ApplicationClusteringImplementations.TemperatureSensorNode30.batteryStats 	lifetime 	-1
attr unit  s
scalar ApplicationClusteringImplementations.TemperatureSensorNode30.batteryStats 	"Mean power consumption" 	inf
attr unit  mW
scalar ApplicationClusteringImplementations.TemperatureSensorNode30.nic.mac 	nbTxFrames 	0
scalar ApplicationClusteringImplementations.TemperatureSensorNode30.nic.mac 	nbRxFrames 	0
scalar ApplicationClusteringImplementations.TemperatureSensorNode30.nic.mac 	nbDroppedFrames 	0
scalar ApplicationClusteringImplementations.TemperatureSensorNode30.nic.mac 	nbMissedAcks 	0
scalar ApplicationClusteringImplementations.TemperatureSensorNode30.nic.mac 	nbRecvdAcks 	0
scalar ApplicationClusteringImplementations.TemperatureSensorNode30.nic.mac 	nbTxAcks 	0
scalar ApplicationClusteringImplementations.TemperatureSensorNode30.nic.mac 	nbDuplicates 	0
scalar ApplicationClusteringImplementations.TemperatureSensorNode30.nic.mac 	meanBackoff 	0
scalar ApplicationClusteringImplementations.TemperatureSensorNode30.nic.mac 	nbBackoffs 	0
scalar ApplicationClusteringImplementations.TemperatureSensorNode30.nic.mac 	backoffDurations 	0
scalar ApplicationClusteringImplementations.TemperatureSensorNode30.nic.phy 	nbFramesWithInterference 	0
scalar ApplicationClusteringImplementations.TemperatureSensorNode30.nic.phy 	nbFramesWithoutInterference 	0
scalar ApplicationClusteringImplementations.TemperatureSensorNode30.nic.phy 	nbFramesWithInterferencePartial 	0
scalar ApplicationClusteringImplementations.TemperatureSensorNode30.nic.phy 	nbFramesWithoutInterferencePartial 	0
scalar ApplicationClusteringImplementations.TemperatureSensorNode30.nic.phy 	nbFramesWithInterferenceDropped 	0
scalar ApplicationClusteringImplementations.TemperatureSensorNode30.nic.phy 	nbFramesWithoutInterferenceDropped 	0
scalar ApplicationClusteringImplementations.TemperatureSensorNode31.batteryStats 	nominal 	10800000
attr unit  mW-s
scalar ApplicationClusteringImplementations.TemperatureSensorNode31.batteryStats 	total 	40000
attr unit  mW-s
scalar ApplicationClusteringImplementations.TemperatureSensorNode31.batteryStats 	lifetime 	-1
attr unit  s
scalar ApplicationClusteringImplementations.TemperatureSensorNode31.batteryStats 	"Mean power consumption" 	inf
attr unit  mW
scalar ApplicationClusteringImplementations.TemperatureSensorNode31.nic.mac 	nbTxFrames 	0
scalar ApplicationClusteringImplementations.TemperatureSensorNode31.nic.mac 	nbRxFrames 	0
scalar ApplicationClusteringImplementations.TemperatureSensorNode31.nic.mac 	nbDroppedFrames 	0
scalar ApplicationClusteringImplementations.TemperatureSensorNode31.nic.mac 	nbMissedAcks 	0
scalar ApplicationClusteringImplementations.TemperatureSensorNode31.nic.mac 	nbRecvdAcks 	0
scalar ApplicationClusteringImplementations.TemperatureSensorNode31.nic.mac 	nbTxAcks 	0
scalar ApplicationClusteringImplementations.TemperatureSensorNode31.nic.mac 	nbDuplicates 	0
scalar ApplicationClusteringImplementations.TemperatureSensorNode31.nic.mac 	meanBackoff 	0
scalar ApplicationClusteringImplementations.TemperatureSensorNode31.nic.mac 	nbBackoffs 	0
scalar ApplicationClusteringImplementations.TemperatureSensorNode31.nic.mac 	backoffDurations 	0
scalar ApplicationClusteringImplementations.TemperatureSensorNode31.nic.phy 	nbFramesWithInterference 	0
scalar ApplicationClusteringImplementations.TemperatureSensorNode31.nic.phy 	nbFramesWithoutInterference 	0
scalar ApplicationClusteringImplementations.TemperatureSensorNode31.nic.phy 	nbFramesWithInterferencePartial 	0
scalar ApplicationClusteringImplementations.TemperatureSensorNode31.nic.phy 	nbFramesWithoutInterferencePartial 	0
scalar ApplicationClusteringImplementations.TemperatureSensorNode31.nic.phy 	nbFramesWithInterferenceDropped 	0
scalar ApplicationClusteringImplementations.TemperatureSensorNode31.nic.phy 	nbFramesWithoutInterferenceDropped 	0
scalar ApplicationClusteringImplementations.TemperatureSensorNode32.batteryStats 	nominal 	10800000
attr unit  mW-s
scalar ApplicationClusteringImplementations.TemperatureSensorNode32.batteryStats 	total 	40000
attr unit  mW-s
scalar ApplicationClusteringImplementations.TemperatureSensorNode32.batteryStats 	lifetime 	-1
attr unit  s
scalar ApplicationClusteringImplementations.TemperatureSensorNode32.batteryStats 	"Mean power consumption" 	inf
attr unit  mW
scalar ApplicationClusteringImplementations.TemperatureSensorNode32.nic.mac 	nbTxFrames 	0
scalar ApplicationClusteringImplementations.TemperatureSensorNode32.nic.mac 	nbRxFrames 	0
scalar ApplicationClusteringImplementations.TemperatureSensorNode32.nic.mac 	nbDroppedFrames 	0
scalar ApplicationClusteringImplementations.TemperatureSensorNode32.nic.mac 	nbMissedAcks 	0
scalar ApplicationClusteringImplementations.TemperatureSensorNode32.nic.mac 	nbRecvdAcks 	0
scalar ApplicationClusteringImplementations.TemperatureSensorNode32.nic.mac 	nbTxAcks 	0
scalar ApplicationClusteringImplementations.TemperatureSensorNode32.nic.mac 	nbDuplicates 	0
scalar ApplicationClusteringImplementations.TemperatureSensorNode32.nic.mac 	meanBackoff 	0
scalar ApplicationClusteringImplementations.TemperatureSensorNode32.nic.mac 	nbBackoffs 	0
scalar ApplicationClusteringImplementations.TemperatureSensorNode32.nic.mac 	backoffDurations 	0
scalar ApplicationClusteringImplementations.TemperatureSensorNode32.nic.phy 	nbFramesWithInterference 	0
scalar ApplicationClusteringImplementations.TemperatureSensorNode32.nic.phy 	nbFramesWithoutInterference 	0
scalar ApplicationClusteringImplementations.TemperatureSensorNode32.nic.phy 	nbFramesWithInterferencePartial 	0
scalar ApplicationClusteringImplementations.TemperatureSensorNode32.nic.phy 	nbFramesWithoutInterferencePartial 	0
scalar ApplicationClusteringImplementations.TemperatureSensorNode32.nic.phy 	nbFramesWithInterferenceDropped 	0
scalar ApplicationClusteringImplementations.TemperatureSensorNode32.nic.phy 	nbFramesWithoutInterferenceDropped 	0
scalar ApplicationClusteringImplementations.TemperatureSensorNode33.batteryStats 	nominal 	10800000
attr unit  mW-s
scalar ApplicationClusteringImplementations.TemperatureSensorNode33.batteryStats 	total 	40000
attr unit  mW-s
scalar ApplicationClusteringImplementations.TemperatureSensorNode33.batteryStats 	lifetime 	-1
attr unit  s
scalar ApplicationClusteringImplementations.TemperatureSensorNode33.batteryStats 	"Mean power consumption" 	inf
attr unit  mW
scalar ApplicationClusteringImplementations.TemperatureSensorNode33.nic.mac 	nbTxFrames 	0
scalar ApplicationClusteringImplementations.TemperatureSensorNode33.nic.mac 	nbRxFrames 	0
scalar ApplicationClusteringImplementations.TemperatureSensorNode33.nic.mac 	nbDroppedFrames 	0
scalar ApplicationClusteringImplementations.TemperatureSensorNode33.nic.mac 	nbMissedAcks 	0
scalar ApplicationClusteringImplementations.TemperatureSensorNode33.nic.mac 	nbRecvdAcks 	0
scalar ApplicationClusteringImplementations.TemperatureSensorNode33.nic.mac 	nbTxAcks 	0
scalar ApplicationClusteringImplementations.TemperatureSensorNode33.nic.mac 	nbDuplicates 	0
scalar ApplicationClusteringImplementations.TemperatureSensorNode33.nic.mac 	meanBackoff 	0
scalar ApplicationClusteringImplementations.TemperatureSensorNode33.nic.mac 	nbBackoffs 	0
scalar ApplicationClusteringImplementations.TemperatureSensorNode33.nic.mac 	backoffDurations 	0
scalar ApplicationClusteringImplementations.TemperatureSensorNode33.nic.phy 	nbFramesWithInterference 	0
scalar ApplicationClusteringImplementations.TemperatureSensorNode33.nic.phy 	nbFramesWithoutInterference 	0
scalar ApplicationClusteringImplementations.TemperatureSensorNode33.nic.phy 	nbFramesWithInterferencePartial 	0
scalar ApplicationClusteringImplementations.TemperatureSensorNode33.nic.phy 	nbFramesWithoutInterferencePartial 	0
scalar ApplicationClusteringImplementations.TemperatureSensorNode33.nic.phy 	nbFramesWithInterferenceDropped 	0
scalar ApplicationClusteringImplementations.TemperatureSensorNode33.nic.phy 	nbFramesWithoutInterferenceDropped 	0
scalar ApplicationClusteringImplementations.TemperatureSensorNode34.batteryStats 	nominal 	10800000
attr unit  mW-s
scalar ApplicationClusteringImplementations.TemperatureSensorNode34.batteryStats 	total 	40000
attr unit  mW-s
scalar ApplicationClusteringImplementations.TemperatureSensorNode34.batteryStats 	lifetime 	-1
attr unit  s
scalar ApplicationClusteringImplementations.TemperatureSensorNode34.batteryStats 	"Mean power consumption" 	inf
attr unit  mW
scalar ApplicationClusteringImplementations.TemperatureSensorNode34.nic.mac 	nbTxFrames 	0
scalar ApplicationClusteringImplementations.TemperatureSensorNode34.nic.mac 	nbRxFrames 	0
scalar ApplicationClusteringImplementations.TemperatureSensorNode34.nic.mac 	nbDroppedFrames 	0
scalar ApplicationClusteringImplementations.TemperatureSensorNode34.nic.mac 	nbMissedAcks 	0
scalar ApplicationClusteringImplementations.TemperatureSensorNode34.nic.mac 	nbRecvdAcks 	0
scalar ApplicationClusteringImplementations.TemperatureSensorNode34.nic.mac 	nbTxAcks 	0
scalar ApplicationClusteringImplementations.TemperatureSensorNode34.nic.mac 	nbDuplicates 	0
scalar ApplicationClusteringImplementations.TemperatureSensorNode34.nic.mac 	meanBackoff 	0
scalar ApplicationClusteringImplementations.TemperatureSensorNode34.nic.mac 	nbBackoffs 	0
scalar ApplicationClusteringImplementations.TemperatureSensorNode34.nic.mac 	backoffDurations 	0
scalar ApplicationClusteringImplementations.TemperatureSensorNode34.nic.phy 	nbFramesWithInterference 	0
scalar ApplicationClusteringImplementations.TemperatureSensorNode34.nic.phy 	nbFramesWithoutInterference 	0
scalar ApplicationClusteringImplementations.TemperatureSensorNode34.nic.phy 	nbFramesWithInterferencePartial 	0
scalar ApplicationClusteringImplementations.TemperatureSensorNode34.nic.phy 	nbFramesWithoutInterferencePartial 	0
scalar ApplicationClusteringImplementations.TemperatureSensorNode34.nic.phy 	nbFramesWithInterferenceDropped 	0
scalar ApplicationClusteringImplementations.TemperatureSensorNode34.nic.phy 	nbFramesWithoutInterferenceDropped 	0
scalar ApplicationClusteringImplementations.TemperatureSensorNode35.batteryStats 	nominal 	10800000
attr unit  mW-s
scalar ApplicationClusteringImplementations.TemperatureSensorNode35.batteryStats 	total 	40000
attr unit  mW-s
scalar ApplicationClusteringImplementations.TemperatureSensorNode35.batteryStats 	lifetime 	-1
attr unit  s
scalar ApplicationClusteringImplementations.TemperatureSensorNode35.batteryStats 	"Mean power consumption" 	inf
attr unit  mW
scalar ApplicationClusteringImplementations.TemperatureSensorNode35.nic.mac 	nbTxFrames 	0
scalar ApplicationClusteringImplementations.TemperatureSensorNode35.nic.mac 	nbRxFrames 	0
scalar ApplicationClusteringImplementations.TemperatureSensorNode35.nic.mac 	nbDroppedFrames 	0
scalar ApplicationClusteringImplementations.TemperatureSensorNode35.nic.mac 	nbMissedAcks 	0
scalar ApplicationClusteringImplementations.TemperatureSensorNode35.nic.mac 	nbRecvdAcks 	0
scalar ApplicationClusteringImplementations.TemperatureSensorNode35.nic.mac 	nbTxAcks 	0
scalar ApplicationClusteringImplementations.TemperatureSensorNode35.nic.mac 	nbDuplicates 	0
scalar ApplicationClusteringImplementations.TemperatureSensorNode35.nic.mac 	meanBackoff 	0
scalar ApplicationClusteringImplementations.TemperatureSensorNode35.nic.mac 	nbBackoffs 	0
scalar ApplicationClusteringImplementations.TemperatureSensorNode35.nic.mac 	backoffDurations 	0
scalar ApplicationClusteringImplementations.TemperatureSensorNode35.nic.phy 	nbFramesWithInterference 	0
scalar ApplicationClusteringImplementations.TemperatureSensorNode35.nic.phy 	nbFramesWithoutInterference 	0
scalar ApplicationClusteringImplementations.TemperatureSensorNode35.nic.phy 	nbFramesWithInterferencePartial 	0
scalar ApplicationClusteringImplementations.TemperatureSensorNode35.nic.phy 	nbFramesWithoutInterferencePartial 	0
scalar ApplicationClusteringImplementations.TemperatureSensorNode35.nic.phy 	nbFramesWithInterferenceDropped 	0
scalar ApplicationClusteringImplementations.TemperatureSensorNode35.nic.phy 	nbFramesWithoutInterferenceDropped 	0
scalar ApplicationClusteringImplementations.TemperatureSensorNode36.batteryStats 	nominal 	10800000
attr unit  mW-s
scalar ApplicationClusteringImplementations.TemperatureSensorNode36.batteryStats 	total 	40000
attr unit  mW-s
scalar ApplicationClusteringImplementations.TemperatureSensorNode36.batteryStats 	lifetime 	-1
attr unit  s
scalar ApplicationClusteringImplementations.TemperatureSensorNode36.batteryStats 	"Mean power consumption" 	inf
attr unit  mW
scalar ApplicationClusteringImplementations.TemperatureSensorNode36.nic.mac 	nbTxFrames 	0
scalar ApplicationClusteringImplementations.TemperatureSensorNode36.nic.mac 	nbRxFrames 	0
scalar ApplicationClusteringImplementations.TemperatureSensorNode36.nic.mac 	nbDroppedFrames 	0
scalar ApplicationClusteringImplementations.TemperatureSensorNode36.nic.mac 	nbMissedAcks 	0
scalar ApplicationClusteringImplementations.TemperatureSensorNode36.nic.mac 	nbRecvdAcks 	0
scalar ApplicationClusteringImplementations.TemperatureSensorNode36.nic.mac 	nbTxAcks 	0
scalar ApplicationClusteringImplementations.TemperatureSensorNode36.nic.mac 	nbDuplicates 	0
scalar ApplicationClusteringImplementations.TemperatureSensorNode36.nic.mac 	meanBackoff 	0
scalar ApplicationClusteringImplementations.TemperatureSensorNode36.nic.mac 	nbBackoffs 	0
scalar ApplicationClusteringImplementations.TemperatureSensorNode36.nic.mac 	backoffDurations 	0
scalar ApplicationClusteringImplementations.TemperatureSensorNode36.nic.phy 	nbFramesWithInterference 	0
scalar ApplicationClusteringImplementations.TemperatureSensorNode36.nic.phy 	nbFramesWithoutInterference 	0
scalar ApplicationClusteringImplementations.TemperatureSensorNode36.nic.phy 	nbFramesWithInterferencePartial 	0
scalar ApplicationClusteringImplementations.TemperatureSensorNode36.nic.phy 	nbFramesWithoutInterferencePartial 	0
scalar ApplicationClusteringImplementations.TemperatureSensorNode36.nic.phy 	nbFramesWithInterferenceDropped 	0
scalar ApplicationClusteringImplementations.TemperatureSensorNode36.nic.phy 	nbFramesWithoutInterferenceDropped 	0
scalar ApplicationClusteringImplementations.TemperatureSensorNode37.batteryStats 	nominal 	10800000
attr unit  mW-s
scalar ApplicationClusteringImplementations.TemperatureSensorNode37.batteryStats 	total 	40000
attr unit  mW-s
scalar ApplicationClusteringImplementations.TemperatureSensorNode37.batteryStats 	lifetime 	-1
attr unit  s
scalar ApplicationClusteringImplementations.TemperatureSensorNode37.batteryStats 	"Mean power consumption" 	inf
attr unit  mW
scalar ApplicationClusteringImplementations.TemperatureSensorNode37.nic.mac 	nbTxFrames 	0
scalar ApplicationClusteringImplementations.TemperatureSensorNode37.nic.mac 	nbRxFrames 	0
scalar ApplicationClusteringImplementations.TemperatureSensorNode37.nic.mac 	nbDroppedFrames 	0
scalar ApplicationClusteringImplementations.TemperatureSensorNode37.nic.mac 	nbMissedAcks 	0
scalar ApplicationClusteringImplementations.TemperatureSensorNode37.nic.mac 	nbRecvdAcks 	0
scalar ApplicationClusteringImplementations.TemperatureSensorNode37.nic.mac 	nbTxAcks 	0
scalar ApplicationClusteringImplementations.TemperatureSensorNode37.nic.mac 	nbDuplicates 	0
scalar ApplicationClusteringImplementations.TemperatureSensorNode37.nic.mac 	meanBackoff 	0
scalar ApplicationClusteringImplementations.TemperatureSensorNode37.nic.mac 	nbBackoffs 	0
scalar ApplicationClusteringImplementations.TemperatureSensorNode37.nic.mac 	backoffDurations 	0
scalar ApplicationClusteringImplementations.TemperatureSensorNode37.nic.phy 	nbFramesWithInterference 	0
scalar ApplicationClusteringImplementations.TemperatureSensorNode37.nic.phy 	nbFramesWithoutInterference 	0
scalar ApplicationClusteringImplementations.TemperatureSensorNode37.nic.phy 	nbFramesWithInterferencePartial 	0
scalar ApplicationClusteringImplementations.TemperatureSensorNode37.nic.phy 	nbFramesWithoutInterferencePartial 	0
scalar ApplicationClusteringImplementations.TemperatureSensorNode37.nic.phy 	nbFramesWithInterferenceDropped 	0
scalar ApplicationClusteringImplementations.TemperatureSensorNode37.nic.phy 	nbFramesWithoutInterferenceDropped 	0
