version 2
run General-0-20151209-15:43:58-5209
attr configname General
attr datetime 20151209-15:43:58
attr experiment General
attr inifile omnetpp.ini
attr iterationvars ""
attr iterationvars2 $repetition=0
attr measurement ""
attr network ApplicationClusteringImplementations
attr processid 5209
attr repetition 0
attr replication #0
attr resultdir results
attr runnumber 0
attr seedset 0

scalar ApplicationClusteringImplementations.world 	#sent 	0
scalar ApplicationClusteringImplementations.world 	#received 	0
statistic ApplicationClusteringImplementations.world 	"hop count"
field count 0
field mean 0
field stddev -nan
field sum 0
field sqrsum 0
field min 0
field max 0
attr type  int
bin	-INF	0
bin	-1	0
bin	0	0
bin	1	0
scalar ApplicationClusteringImplementations.Node9.batteryStats 	nominal 	10800000
attr unit  mW-s
scalar ApplicationClusteringImplementations.Node9.batteryStats 	total 	1402121.897206
attr unit  mW-s
scalar ApplicationClusteringImplementations.Node9.batteryStats 	lifetime 	-1
attr unit  s
scalar ApplicationClusteringImplementations.Node9.batteryStats 	"Mean power consumption" 	11195.151222242
attr unit  mW
scalar ApplicationClusteringImplementations.Node9.nic.mac 	nbTxFrames 	5
scalar ApplicationClusteringImplementations.Node9.nic.mac 	nbRxFrames 	5
scalar ApplicationClusteringImplementations.Node9.nic.mac 	nbDroppedFrames 	0
scalar ApplicationClusteringImplementations.Node9.nic.mac 	nbMissedAcks 	0
scalar ApplicationClusteringImplementations.Node9.nic.mac 	nbRecvdAcks 	0
scalar ApplicationClusteringImplementations.Node9.nic.mac 	nbTxAcks 	0
scalar ApplicationClusteringImplementations.Node9.nic.mac 	nbDuplicates 	0
scalar ApplicationClusteringImplementations.Node9.nic.mac 	meanBackoff 	0
scalar ApplicationClusteringImplementations.Node9.nic.mac 	nbBackoffs 	5
scalar ApplicationClusteringImplementations.Node9.nic.mac 	backoffDurations 	0
scalar ApplicationClusteringImplementations.Node9.nic.phy 	nbFramesWithInterference 	4
scalar ApplicationClusteringImplementations.Node9.nic.phy 	nbFramesWithoutInterference 	5
scalar ApplicationClusteringImplementations.Node9.nic.phy 	nbFramesWithInterferencePartial 	0
scalar ApplicationClusteringImplementations.Node9.nic.phy 	nbFramesWithoutInterferencePartial 	0
scalar ApplicationClusteringImplementations.Node9.nic.phy 	nbFramesWithInterferenceDropped 	0
scalar ApplicationClusteringImplementations.Node9.nic.phy 	nbFramesWithoutInterferenceDropped 	0
scalar ApplicationClusteringImplementations.Node10.batteryStats 	nominal 	10800000
attr unit  mW-s
scalar ApplicationClusteringImplementations.Node10.batteryStats 	total 	1402121.8469272
attr unit  mW-s
scalar ApplicationClusteringImplementations.Node10.batteryStats 	lifetime 	-1
attr unit  s
scalar ApplicationClusteringImplementations.Node10.batteryStats 	"Mean power consumption" 	11195.150820794
attr unit  mW
scalar ApplicationClusteringImplementations.Node10.nic.mac 	nbTxFrames 	4
scalar ApplicationClusteringImplementations.Node10.nic.mac 	nbRxFrames 	5
scalar ApplicationClusteringImplementations.Node10.nic.mac 	nbDroppedFrames 	0
scalar ApplicationClusteringImplementations.Node10.nic.mac 	nbMissedAcks 	0
scalar ApplicationClusteringImplementations.Node10.nic.mac 	nbRecvdAcks 	0
scalar ApplicationClusteringImplementations.Node10.nic.mac 	nbTxAcks 	0
scalar ApplicationClusteringImplementations.Node10.nic.mac 	nbDuplicates 	0
scalar ApplicationClusteringImplementations.Node10.nic.mac 	meanBackoff 	0
scalar ApplicationClusteringImplementations.Node10.nic.mac 	nbBackoffs 	4
scalar ApplicationClusteringImplementations.Node10.nic.mac 	backoffDurations 	0
scalar ApplicationClusteringImplementations.Node10.nic.phy 	nbFramesWithInterference 	0
scalar ApplicationClusteringImplementations.Node10.nic.phy 	nbFramesWithoutInterference 	9
scalar ApplicationClusteringImplementations.Node10.nic.phy 	nbFramesWithInterferencePartial 	0
scalar ApplicationClusteringImplementations.Node10.nic.phy 	nbFramesWithoutInterferencePartial 	0
scalar ApplicationClusteringImplementations.Node10.nic.phy 	nbFramesWithInterferenceDropped 	0
scalar ApplicationClusteringImplementations.Node10.nic.phy 	nbFramesWithoutInterferenceDropped 	0
scalar ApplicationClusteringImplementations.Node11.batteryStats 	nominal 	10800000
attr unit  mW-s
scalar ApplicationClusteringImplementations.Node11.batteryStats 	total 	1402121.7069272
attr unit  mW-s
scalar ApplicationClusteringImplementations.Node11.batteryStats 	lifetime 	-1
attr unit  s
scalar ApplicationClusteringImplementations.Node11.batteryStats 	"Mean power consumption" 	11195.149702973
attr unit  mW
scalar ApplicationClusteringImplementations.Node11.nic.mac 	nbTxFrames 	4
scalar ApplicationClusteringImplementations.Node11.nic.mac 	nbRxFrames 	4
scalar ApplicationClusteringImplementations.Node11.nic.mac 	nbDroppedFrames 	0
scalar ApplicationClusteringImplementations.Node11.nic.mac 	nbMissedAcks 	0
scalar ApplicationClusteringImplementations.Node11.nic.mac 	nbRecvdAcks 	0
scalar ApplicationClusteringImplementations.Node11.nic.mac 	nbTxAcks 	0
scalar ApplicationClusteringImplementations.Node11.nic.mac 	nbDuplicates 	0
scalar ApplicationClusteringImplementations.Node11.nic.mac 	meanBackoff 	0
scalar ApplicationClusteringImplementations.Node11.nic.mac 	nbBackoffs 	4
scalar ApplicationClusteringImplementations.Node11.nic.mac 	backoffDurations 	0
scalar ApplicationClusteringImplementations.Node11.nic.phy 	nbFramesWithInterference 	0
scalar ApplicationClusteringImplementations.Node11.nic.phy 	nbFramesWithoutInterference 	4
scalar ApplicationClusteringImplementations.Node11.nic.phy 	nbFramesWithInterferencePartial 	0
scalar ApplicationClusteringImplementations.Node11.nic.phy 	nbFramesWithoutInterferencePartial 	0
scalar ApplicationClusteringImplementations.Node11.nic.phy 	nbFramesWithInterferenceDropped 	0
scalar ApplicationClusteringImplementations.Node11.nic.phy 	nbFramesWithoutInterferenceDropped 	0
scalar ApplicationClusteringImplementations.Node12.batteryStats 	nominal 	10800000
attr unit  mW-s
scalar ApplicationClusteringImplementations.Node12.batteryStats 	total 	1402122.3458115
attr unit  mW-s
scalar ApplicationClusteringImplementations.Node12.batteryStats 	lifetime 	-1
attr unit  s
scalar ApplicationClusteringImplementations.Node12.batteryStats 	"Mean power consumption" 	11195.154804104
attr unit  mW
scalar ApplicationClusteringImplementations.Node12.nic.mac 	nbTxFrames 	0
scalar ApplicationClusteringImplementations.Node12.nic.mac 	nbRxFrames 	4
scalar ApplicationClusteringImplementations.Node12.nic.mac 	nbDroppedFrames 	0
scalar ApplicationClusteringImplementations.Node12.nic.mac 	nbMissedAcks 	0
scalar ApplicationClusteringImplementations.Node12.nic.mac 	nbRecvdAcks 	0
scalar ApplicationClusteringImplementations.Node12.nic.mac 	nbTxAcks 	0
scalar ApplicationClusteringImplementations.Node12.nic.mac 	nbDuplicates 	0
scalar ApplicationClusteringImplementations.Node12.nic.mac 	meanBackoff 	0
scalar ApplicationClusteringImplementations.Node12.nic.mac 	nbBackoffs 	0
scalar ApplicationClusteringImplementations.Node12.nic.mac 	backoffDurations 	0
scalar ApplicationClusteringImplementations.Node12.nic.phy 	nbFramesWithInterference 	0
scalar ApplicationClusteringImplementations.Node12.nic.phy 	nbFramesWithoutInterference 	4
scalar ApplicationClusteringImplementations.Node12.nic.phy 	nbFramesWithInterferencePartial 	0
scalar ApplicationClusteringImplementations.Node12.nic.phy 	nbFramesWithoutInterferencePartial 	0
scalar ApplicationClusteringImplementations.Node12.nic.phy 	nbFramesWithInterferenceDropped 	0
scalar ApplicationClusteringImplementations.Node12.nic.phy 	nbFramesWithoutInterferenceDropped 	0
scalar ApplicationClusteringImplementations.Node13.batteryStats 	nominal 	10800000
attr unit  mW-s
scalar ApplicationClusteringImplementations.Node13.batteryStats 	total 	1402121.5797162
attr unit  mW-s
scalar ApplicationClusteringImplementations.Node13.batteryStats 	lifetime 	-1
attr unit  s
scalar ApplicationClusteringImplementations.Node13.batteryStats 	"Mean power consumption" 	11195.148687265
attr unit  mW
scalar ApplicationClusteringImplementations.Node13.nic.mac 	nbTxFrames 	14
scalar ApplicationClusteringImplementations.Node13.nic.mac 	nbRxFrames 	0
scalar ApplicationClusteringImplementations.Node13.nic.mac 	nbDroppedFrames 	0
scalar ApplicationClusteringImplementations.Node13.nic.mac 	nbMissedAcks 	0
scalar ApplicationClusteringImplementations.Node13.nic.mac 	nbRecvdAcks 	0
scalar ApplicationClusteringImplementations.Node13.nic.mac 	nbTxAcks 	0
scalar ApplicationClusteringImplementations.Node13.nic.mac 	nbDuplicates 	0
scalar ApplicationClusteringImplementations.Node13.nic.mac 	meanBackoff 	0
scalar ApplicationClusteringImplementations.Node13.nic.mac 	nbBackoffs 	30
scalar ApplicationClusteringImplementations.Node13.nic.mac 	backoffDurations 	0
scalar ApplicationClusteringImplementations.Node13.nic.phy 	nbFramesWithInterference 	0
scalar ApplicationClusteringImplementations.Node13.nic.phy 	nbFramesWithoutInterference 	0
scalar ApplicationClusteringImplementations.Node13.nic.phy 	nbFramesWithInterferencePartial 	0
scalar ApplicationClusteringImplementations.Node13.nic.phy 	nbFramesWithoutInterferencePartial 	0
scalar ApplicationClusteringImplementations.Node13.nic.phy 	nbFramesWithInterferenceDropped 	0
scalar ApplicationClusteringImplementations.Node13.nic.phy 	nbFramesWithoutInterferenceDropped 	0
